<?xml version="1.0" encoding="UTF-8"?>

<!-- generated on Wed Aug 23 00:00:19 2017 by SUMO duarouter Version 0.30.0
<?xml version="1.0" encoding="UTF-8"?>

<configuration xmlns:xsi="http://www.w3.org/2001/XMLSchema-instance" xsi:noNamespaceSchemaLocation="http://sumo.dlr.de/xsd/duarouterConfiguration.xsd">

    <input>
        <net-file value="alameda.net.xml"/>
        <additional-files value="vtype.add.xml"/>
        <trip-files value="trips.trips.xml"/>
    </input>

    <output>
        <output-file value="alameda.rou.xml"/>
    </output>

    <processing>
        <ignore-errors value="true"/>
    </processing>

    <time>
        <begin value="0"/>
        <end value="500.0"/>
    </time>

    <report>
        <no-warnings value="true"/>
        <no-step-log value="true"/>
    </report>

</configuration>
-->

<routes>
    <vType id="passenger" maxSpeed="50.00"/>
    <vehicle id="1" type="passenger" depart="0.50" departLane="best">
        <route edges="35902125#2 35902125#3 27617865 34475191#3 34475191#4 349851315 30098185#5 27617819#2 27617819#3 27617819#4 349851327#0 349851327#1"/>
    </vehicle>
    <vehicle id="2" type="passenger" depart="1.00" departLane="best">
        <route edges="35773427#4 35902033#3 34474997#6 34474997#7 34474997#8 34474997#9 448479840#0 448479840#1 448479840#2 511066491 358055149 511066518#0 511066518#1 358089846 511066434 511066443#0 511066443#1 511066490 357424594#0 357424594#1 357424594#2 190816349#0 190816349#1 190816349#2 190816349#3 190816349#4 35901833#0 35901833#1 35901833#2 35901833#3 35901833#4 -255925785#2 -255925785#1 -255925785#0 23162032#0 23162032#1 23162032#2 23162032#3 23162032#4 23162032#5 23162032#6"/>
    </vehicle>
    <vehicle id="4" type="passenger" depart="2.00" departLane="best">
        <route edges="34475191#3 34475191#4 349851315 30098185#5 27617819#2 27617819#3 27617819#4 27617819#5 27617819#6 27617819#7 146196600#0 146196600#1 511066483 511066470 146544718 358195673"/>
    </vehicle>
    <vehicle id="5" type="passenger" depart="2.50" departLane="best">
        <route edges="511066518#1 358089846 511066434 511066443#0 511066443#1 511066490 357424594#0 357424594#1 357424594#2 190816349#0 190816349#1 190816349#2 190816349#3 190816349#4 35901833#0 35901833#1 35901833#2"/>
    </vehicle>
    <vehicle id="6" type="passenger" depart="3.00" departLane="best">
        <route edges="23161464#0 23161464#1 511066483 511066470 146544718 358195673 -359227314#1 -359227314#0 511066490 357424594#0 357424594#1 357424594#2 190816349#0 190816349#1 190816349#2 190816349#3 190816349#4 35901833#0 35901833#1 35901833#2 35901833#3 35901833#4 -255925785#2 -255925785#1 -255925785#0 23162032#0 23162032#1 23162032#2 23162032#3 23162032#4 23162032#5 23162032#6 23162032#7 23162032#8 23162032#9 190525294#0"/>
    </vehicle>
    <vehicle id="7" type="passenger" depart="3.50" departLane="best">
        <route edges="357424594#0 357424594#1 357424594#2 146196600#0 146196600#1 191454927#0 191454927#1 35903166#0 35903166#1 35903166#2 27131168#0 27131168#1 27131168#2 190816355 190816353 35903338"/>
    </vehicle>
    <vehicle id="8" type="passenger" depart="4.00" departLane="best">
        <route edges="191454927#1 35903166#0 35903166#1 35903166#2 27131168#0 27131168#1 27131168#2 190816355 61279128#0 61279128#1"/>
    </vehicle>
    <vehicle id="9" type="passenger" depart="4.50" departLane="best">
        <route edges="358055149 511066518#0 511066518#1 358089846 511066434 511066443#0 511066443#1 511066490 357424594#0 357424594#1 357424594#2 190816349#0 190816349#1 190816349#2 190816349#3 190816349#4 35901833#0 35901833#1 35901833#2 35901833#3 35901833#4 -255925785#2 -255925785#1 -255925785#0 23162032#0 23162032#1 23162032#2 23162032#3 23162032#4 23162032#5 23162032#6 23162032#7 402281056 27617819#1 27617819#2 27617819#3 27617819#4 27617819#5 35902564#0 35902564#1 35902564#2"/>
    </vehicle>
    <vehicle id="10" type="passenger" depart="5.00" departLane="best">
        <route edges="27617819#4 27617819#5 27617819#6 27617819#7 146196600#0 146196600#1 191454927#0 191454927#1 35903166#0 35903166#1 35903166#2 27131168#0 27131168#1 27131168#2 190816355 190816353 35903338 61335135#1 35903288"/>
    </vehicle>
    <vehicle id="12" type="passenger" depart="6.00" departLane="best">
        <route edges="35773427#3 30098185#1 30098185#2 30098185#3"/>
    </vehicle>
    <vehicle id="13" type="passenger" depart="6.50" departLane="best">
        <route edges="190816349#3 190816349#4 35901833#0 35901833#1 35901833#2 35901833#3 35901833#4 -255925785#2 -255925785#1 -255925785#0 23162032#0 23162032#1 23162032#2 23162032#3 23162032#4 23162032#5 23162032#6 23162032#7 23162032#8 23162032#9 190525294#0 190525294#1 190525294#2 190525294#3 190525294#4 190525294#5 367453371 34474997#0 34474997#1 34474997#2 34474997#3 34474997#4 34474997#5 34474997#6 34474997#7 34474997#8 34474997#9 448479840#0 448479840#1 448479840#2 511066491 358055149 511066518#0 511066518#1 358089846 511066434 511066443#0 511066443#1"/>
    </vehicle>
    <vehicle id="14" type="passenger" depart="7.00" departLane="best">
        <route edges="34474997#8 34474997#9 35901888#0 35901888#1 35901888#2 35901888#3 35901888#4"/>
    </vehicle>
    <vehicle id="16" type="passenger" depart="8.00" departLane="best">
        <route edges="35902125#5 190525294#3 190525294#4 190525294#5 367453371 34474997#0 34474997#1 34474997#2 34474997#3 34474997#4 34474997#5 34474997#6 34474997#7 34474997#8 34474997#9 448479840#0 448479840#1 448479840#2 511066491 358055149 511066518#0 511066518#1 358089846 511066434 511066443#0 511066443#1 511066490 357424594#0 357424594#1 357424594#2 190816349#0 190816349#1 190816349#2 190816349#3 190816349#4 35901833#0 35901833#1 35901833#2 35901833#3 35901833#4 -255925785#2 -255925785#1 -255925785#0 23162032#0 23162032#1 23162032#2 23162032#3 23162032#4 23162032#5 23162032#6 23162032#7 23162032#8 23162032#9 190525294#0"/>
    </vehicle>
    <vehicle id="18" type="passenger" depart="9.00" departLane="best">
        <route edges="-146544715#0 146544715#0 146544715#1 146544715#2"/>
    </vehicle>
    <vehicle id="19" type="passenger" depart="9.50" departLane="best">
        <route edges="190525285#1 358055195 23162032#9 190525294#0 190525294#1 190525294#2 190525294#3 190525294#4 190525294#5 367453371 34474997#0 34474997#1 34474997#2 34474997#3 34474997#4 34474997#5 34474997#6 34474997#7 34474997#8 34474997#9 448479840#0 448479840#1"/>
    </vehicle>
    <vehicle id="20" type="passenger" depart="10.00" departLane="best">
        <route edges="35773427#4 35902033#3 34474997#6 34474997#7 34474997#8 34474997#9 448479840#0 448479840#1 448479840#2 511066491 358055149 511066518#0 511066518#1 358089846 511066434 511066443#0 511066443#1 511066490 357424594#0 357424594#1 357424594#2 190816349#0 190816349#1 190816349#2 190816349#3 190816349#4 35901833#0 35901833#1 146546027#0 146546027#1 23162040#2 23162040#3 190426957#0 190426957#1 190426957#2 190426957#3"/>
    </vehicle>
    <vehicle id="22" type="passenger" depart="11.00" departLane="best">
        <route edges="-255925785#2 -255925785#1 -255925785#0 23162032#0 23162032#1 23162032#2 23162032#3 23162032#4 23162032#5 23162032#6 23162032#7 23162032#8 23162032#9 190525294#0 190525294#1 190525294#2 190525294#3 190525294#4 190525294#5 367453371 34474997#0 34474997#1 34474997#2 34474997#3 34474997#4 34474997#5 34474997#6 30098185#0 30098185#1 35902125#2 35902125#3 35902125#4"/>
    </vehicle>
    <vehicle id="23" type="passenger" depart="11.50" departLane="best">
        <route edges="34474997#1 34474997#2 34474997#3 34474997#4 34474997#5 34474997#6 34474997#7 34474997#8 34474997#9 448479840#0 448479840#1 448479840#2 511066491 358055149 511066518#0 511066518#1 358089846 511066434 511066443#0 511066443#1 511066490 357424594#0 357424594#1 357424594#2 146196600#0 146196600#1 191454927#0 191454927#1 35903166#0 35903166#1"/>
    </vehicle>
    <vehicle id="24" type="passenger" depart="12.00" departLane="best">
        <route edges="402281056 27617819#1 27617819#2 27617819#3 27617819#4 27617819#5 35902564#0 35902564#1 35902564#2 35773427#1 35773427#2 35773427#3 35773427#4 35773427#5 35773427#6"/>
    </vehicle>
    <vehicle id="26" type="passenger" depart="13.00" departLane="best">
        <route edges="23161464#1 511066483 511066470 146544718 358195673 -359227314#1 -359227314#0 511066490 357424594#0 357424594#1 357424594#2 190816349#0 190816349#1 190816349#2 190816349#3 190816349#4 35901833#0 35901833#1 35901833#2 35901833#3 35901833#4 -255925785#2 -255925785#1 -255925785#0 23162032#0 23162032#1 23162032#2 23162032#3 23162032#4 23162032#5 23162032#6 23162032#7 23162032#8 27617819#0"/>
    </vehicle>
    <vehicle id="27" type="passenger" depart="13.50" departLane="best">
        <route edges="190816349#3 190816349#4 35901833#0 35901833#1 35901833#2 35901833#3 35901833#4 -255925785#2 -255925785#1 255925785#1"/>
    </vehicle>
    <vehicle id="28" type="passenger" depart="14.00" departLane="best">
        <route edges="35773427#0 35902564#3 448479840#1 448479840#2 511066491 358055149 511066518#0 511066518#1 358089846 511066434 511066443#0 511066443#1 511066490 357424594#0 357424594#1 357424594#2 190816349#0 190816349#1 190816349#2 190816349#3 190816349#4 35901833#0 35901833#1 146546027#0 146546027#1 23162040#2 23162040#3 23161464#0 23161464#1"/>
    </vehicle>
    <vehicle id="29" type="passenger" depart="14.50" departLane="best">
        <route edges="190525294#2 190525294#3 190525294#4 190525294#5 367453371 34474997#0 34474997#1 34474997#2 34474997#3 34474997#4 34474997#5 34474997#6 34474997#7 34474997#8 34474997#9 448479840#0 448479840#1 448479840#2 511066491 358055149 511066518#0 511066518#1 358089846 511066434 511066443#0 511066443#1 511066490 357424594#0 357424594#1 357424594#2 190816349#0 190816349#1 190816349#2 190816349#3 190816349#4 35901833#0 35901833#1 35901833#2 35901833#3 35901833#4 -255925785#2 -255925785#1 -255925785#0"/>
    </vehicle>
    <vehicle id="32" type="passenger" depart="16.00" departLane="best">
        <route edges="190525294#3 190525294#4 190525294#5 367453371 34474997#0 34474997#1 34474997#2 34474997#3 34474997#4 34474997#5 34474997#6 34474997#7 34474997#8 34474997#9 448479840#0 448479840#1 448479840#2 511066491 358055149 511066518#0 511066518#1 358089846 511066434 511066443#0 511066443#1 359227314#0 359227314#1 72456715#0 72456715#1 511066530"/>
    </vehicle>
    <vehicle id="34" type="passenger" depart="17.00" departLane="best">
        <route edges="34474997#8 34474997#9 448479840#0 448479840#1 448479840#2 511066491 358055149 511066518#0 511066518#1 358089846 511066434 511066443#0 511066443#1 511066490 357424594#0 357424594#1 357424594#2 190816349#0 190816349#1 190816349#2 190816349#3 190816349#4 35901833#0 35901833#1 146546027#0 146546027#1"/>
    </vehicle>
    <vehicle id="35" type="passenger" depart="17.50" departLane="best">
        <route edges="190525285#5 358055191#0 358055191#1 75503605#0 75503605#1 255925785#0 255925785#1 255925785#2"/>
    </vehicle>
    <vehicle id="36" type="passenger" depart="18.00" departLane="best">
        <route edges="23051255#0 23051255#1 23051255#2 255925785#0 255925785#1 255925785#2 358055173 -357575329 357575329 23162040#0 23162040#1 23162040#2 23162040#3 190426957#0 190426957#1 190426957#2 190426957#3 190426957#4 35903166#0 35903166#1 35903166#2 27131168#0 27131168#1 27131168#2 190816355 190816353 146544715#0 146544715#1 146544715#2"/>
    </vehicle>
    <vehicle id="37" type="passenger" depart="18.50" departLane="best">
        <route edges="511066443#1 511066490 357424594#0 357424594#1 357424594#2"/>
    </vehicle>
    <vehicle id="38" type="passenger" depart="19.00" departLane="best">
        <route edges="35901833#0 35901833#1 35901833#2 35901833#3 35901833#4 -255925785#2 -255925785#1 -255925785#0 23162032#0"/>
    </vehicle>
    <vehicle id="39" type="passenger" depart="19.50" departLane="best">
        <route edges="27617865 34475191#3 34475191#4 35902033#0 35902033#1 35902033#2 35902033#3 34474997#6 34474997#7 34474997#8 34474997#9 35901888#0 35901888#1"/>
    </vehicle>
    <vehicle id="40" type="passenger" depart="20.00" departLane="best">
        <route edges="23162032#7 402281056 27617819#1 27617819#2 27617819#3 27617819#4 27617819#5 27617819#6 27617819#7 190816349#0 190816349#1 190816349#2 190816349#3 190816349#4"/>
    </vehicle>
    <vehicle id="41" type="passenger" depart="20.50" departLane="best">
        <route edges="511066491 358055149 511066518#0 511066518#1 358089846 511066434 511066443#0 511066443#1 511066490 357424594#0 357424594#1 357424594#2 190816349#0 190816349#1 190816349#2 190816349#3 190816349#4 35901833#0 35901833#1 35901833#2 35901833#3 35901833#4 -255925785#2 -255925785#1 -255925785#0 23162032#0 23162032#1 23162032#2 23162032#3 23162032#4 23162032#5 23162032#6 23162032#7 402281056 27617819#1 27617819#2 27617819#3 27617819#4 27617819#5 35902564#0 35902564#1 35902564#2"/>
    </vehicle>
    <vehicle id="42" type="passenger" depart="21.00" departLane="best">
        <route edges="35773427#1 35773427#2 35773427#3 35773427#4 35773427#5 35773427#6 35773427#7 190525294#4 190525294#5"/>
    </vehicle>
    <vehicle id="43" type="passenger" depart="21.50" departLane="best">
        <route edges="190525294#2 190525294#3 190525294#4 190525294#5 367453371 34474997#0 34474997#1 34474997#2 34474997#3 34474997#4 34474997#5 34474997#6 34474997#7 34474997#8 34474997#9 448479840#0 448479840#1 429907987 35773427#0 35902564#3"/>
    </vehicle>
    <vehicle id="44" type="passenger" depart="22.00" departLane="best">
        <route edges="358055149 511066518#0 511066518#1 358089846 511066434 511066443#0 511066443#1 511066490 357424594#0 357424594#1 357424594#2 146196600#0 146196600#1 191454927#0 191454927#1"/>
    </vehicle>
    <vehicle id="45" type="passenger" depart="22.50" departLane="best">
        <route edges="35773427#5 349851320#1 34474997#3 34474997#4 34474997#5 34474997#6 34474997#7 34474997#8 34474997#9 448479840#0 448479840#1"/>
    </vehicle>
    <vehicle id="46" type="passenger" depart="23.00" departLane="best">
        <route edges="-359227314#1 -359227314#0 511066490 357424594#0 357424594#1 357424594#2 190816349#0 190816349#1 190816349#2 190816349#3 190816349#4 35901833#0 35901833#1 35901833#2 35901833#3 35901833#4 -255925785#2 -255925785#1 -255925785#0 23162032#0 23162032#1 23162032#2 23162032#3 23162032#4 23162032#5 23162032#6 23162032#7 23162032#8 23162032#9 190525294#0 190525294#1 190525294#2 190525294#3 190525294#4"/>
    </vehicle>
    <vehicle id="47" type="passenger" depart="23.50" departLane="best">
        <route edges="358195673 -359227314#1 -359227314#0 511066490 357424594#0 357424594#1 357424594#2 190816349#0 190816349#1 190816349#2 190816349#3 190816349#4 35901833#0 35901833#1 35901833#2 35901833#3 35901833#4 -255925785#2 -255925785#1 -255925785#0 23162032#0 23162032#1 23162032#2 23162032#3 23162032#4 23162032#5 23162032#6 23162032#7 23162032#8 23162032#9 190525294#0 190525294#1 190525294#2 190525294#3 190525294#4 190525294#5 367453371 34474997#0 34474997#1 34474997#2"/>
    </vehicle>
    <vehicle id="48" type="passenger" depart="24.00" departLane="best">
        <route edges="35773427#6 34475191#1 34475191#2 34475191#3 34475191#4 349851315 30098185#5 27617819#2 27617819#3 27617819#4 27617819#5 27617819#6 27617819#7 190816349#0 190816349#1 190816349#2 190816349#3 190816349#4 35901833#0 35901833#1 35901833#2 35901833#3 35901833#4 -255925785#2 -255925785#1 255925785#1"/>
    </vehicle>
    <vehicle id="49" type="passenger" depart="24.50" departLane="best">
        <route edges="358195684 190525294#0 190525294#1 190525294#2 190525294#3 190525294#4 190525294#5 367453371 34474997#0 34474997#1 34474997#2 34474997#3 34474997#4 34474997#5 34474997#6 34474997#7 34474997#8 34474997#9 448479840#0 448479840#1 448479840#2 511066491 358055149 511066518#0 511066518#1 358089846 511066434 511066443#0 511066443#1 511066490 357424594#0 357424594#1 357424594#2 190816349#0 190816349#1 190816349#2 190816349#3 190816349#4 35901833#0 35901833#1 35901833#2 35901833#3 35901833#4 -255925785#2"/>
    </vehicle>
    <vehicle id="51" type="passenger" depart="25.50" departLane="best">
        <route edges="35902033#0 35902033#1 35902033#2 35773427#5 35773427#6 34475191#1"/>
    </vehicle>
    <vehicle id="53" type="passenger" depart="26.50" departLane="best">
        <route edges="23051255#2 255925785#0 255925785#1 255925785#2 358055173 -357575329 357575329 23162040#0 23162040#1 23162040#2 23162040#3 190426957#0 190426957#1 190426957#2 190426957#3 190426957#4 35903166#0 35903166#1 35903166#2 27131168#0 27131168#1 27131168#2 190816355 190816353 146544715#0"/>
    </vehicle>
    <vehicle id="54" type="passenger" depart="27.00" departLane="best">
        <route edges="23162032#1 23162032#2 23162032#3 23162032#4 23162032#5 23162032#6 23162032#7 402281056 27617819#1 27617819#2 27617819#3 27617819#4 27617819#5 27617819#6 27617819#7 190816349#0 190816349#1"/>
    </vehicle>
    <vehicle id="55" type="passenger" depart="27.50" departLane="best">
        <route edges="357424594#2 146196600#0 146196600#1 511066483 511066470 146544718 358195673 -359227314#1 -359227314#0 511066490 357424594#0 357424594#1"/>
    </vehicle>
    <vehicle id="56" type="passenger" depart="28.00" departLane="best">
        <route edges="511066443#1 511066490 357424594#0 357424594#1 357424594#2 146196600#0 146196600#1 511066483 511066470 146544718 358195673"/>
    </vehicle>
    <vehicle id="57" type="passenger" depart="28.50" departLane="best">
        <route edges="357575329 23162040#0 23162040#1 23162040#2 23162040#3 190426957#0 190426957#1 190426957#2 190426957#3 190426957#4 35903166#0 35903166#1 35903166#2 27131168#0 27131168#1 27131168#2 190816355 61279128#0"/>
    </vehicle>
    <vehicle id="58" type="passenger" depart="29.00" departLane="best">
        <route edges="35902564#3 448479840#1 448479840#2 511066491 358055149 511066518#0 511066518#1 358089846"/>
    </vehicle>
    <vehicle id="60" type="passenger" depart="30.00" departLane="best">
        <route edges="35903288 190816355 190816353 146544715#0 146544715#1 146544715#2"/>
    </vehicle>
    <vehicle id="61" type="passenger" depart="30.50" departLane="best">
        <route edges="35773427#1 35773427#2 35773427#3 35773427#4 35902033#3 34474997#6 34474997#7"/>
    </vehicle>
    <vehicle id="64" type="passenger" depart="32.00" departLane="best">
        <route edges="61335135#0 61335135#1 35903288"/>
    </vehicle>
    <vehicle id="65" type="passenger" depart="32.50" departLane="best">
        <route edges="35902564#3 448479840#1 448479840#2 511066491 358055149 511066518#0 511066518#1 358089846 511066434 511066443#0 511066443#1 511066490 357424594#0 357424594#1 357424594#2 146196600#0 146196600#1 191454927#0 191454927#1 35903166#0 35903166#1 35903166#2 27131168#0 27131168#1 27131168#2 190816355 61279128#0"/>
    </vehicle>
    <vehicle id="66" type="passenger" depart="33.00" departLane="best">
        <route edges="-349851317#1 -349851317#0 30098185#5 27617819#2 27617819#3 27617819#4 27617819#5 27617819#6"/>
    </vehicle>
    <vehicle id="68" type="passenger" depart="34.00" departLane="best">
        <route edges="35773427#1 35773427#2 35773427#3 35773427#4 35902033#3 34474997#6 34474997#7 34474997#8 34474997#9 448479840#0 448479840#1 429907987 35773427#0 35902564#3"/>
    </vehicle>
    <vehicle id="69" type="passenger" depart="34.50" departLane="best">
        <route edges="35773427#2 35773427#3 30098185#1 30098185#2 30098185#3 30098185#4 30098185#5 27617819#2 27617819#3 27617819#4 27617819#5 27617819#6 27617819#7 190816349#0 190816349#1 190816349#2 190816349#3 190816349#4 35901833#0"/>
    </vehicle>
    <vehicle id="70" type="passenger" depart="35.00" departLane="best">
        <route edges="35902125#3 349851320#0 349851320#1 34474997#3 34474997#4 34474997#5 34474997#6 34474997#7 34474997#8 34474997#9 448479840#0 448479840#1 448479840#2 511066491 358055149 511066518#0 511066518#1 358089846 511066434 511066443#0 511066443#1 359227314#0 359227314#1 72456715#0 72456715#1 511066530"/>
    </vehicle>
    <vehicle id="71" type="passenger" depart="35.50" departLane="best">
        <route edges="35773427#7 190525294#4 190525294#5 367453371 34474997#0 34474997#1 34474997#2 34474997#3 34474997#4 34474997#5 34474997#6 34474997#7 34474997#8 34474997#9 448479840#0 448479840#1 448479840#2 511066491 358055149 511066518#0 511066518#1 358089846 511066434 511066443#0 511066443#1 511066490 357424594#0 357424594#1 357424594#2 190816349#0 190816349#1 190816349#2 190816349#3 190816349#4 35901833#0 35901833#1 35901833#2 35901833#3 35901833#4 -255925785#2 -255925785#1 -255925785#0 23162032#0 23162032#1 23162032#2 23162032#3"/>
    </vehicle>
    <vehicle id="73" type="passenger" depart="36.50" departLane="best">
        <route edges="190816349#3 190816349#4 35901833#0 35901833#1 35901833#2 35901833#3 35901833#4 -255925785#2 -255925785#1 -255925785#0 23162032#0 23162032#1 23162032#2 23162032#3 23162032#4 23162032#5 23162032#6 23162032#7 23162032#8 23162032#9 190525294#0 190525294#1 190525294#2 190525294#3 190525294#4 190525294#5 367453371 34474997#0 34474997#1 34475191#0 34475191#1 34475191#2"/>
    </vehicle>
    <vehicle id="74" type="passenger" depart="37.00" departLane="best">
        <route edges="23162032#5 23162032#6 23162032#7 402281056 27617819#1 27617819#2 27617819#3"/>
    </vehicle>
    <vehicle id="75" type="passenger" depart="37.50" departLane="best">
        <route edges="-349851317#0 30098185#5 27617819#2 27617819#3 27617819#4 27617819#5 35902564#0 35902564#1 35902564#2 35902564#3"/>
    </vehicle>
    <vehicle id="76" type="passenger" depart="38.00" departLane="best">
        <route edges="27617819#0 27617819#1 27617819#2 27617819#3 27617819#4 27617819#5 27617819#6 27617819#7 146196600#0 146196600#1 191454927#0 191454927#1"/>
    </vehicle>
    <vehicle id="78" type="passenger" depart="39.00" departLane="best">
        <route edges="190794129#2 190794129#3 190794129#4 190794129#5 -357575329 357575329 -358055173 -255925785#2 -255925785#1 -255925785#0 23162032#0 23162032#1 23162032#2 23162032#3 23162032#4 23162032#5 23162032#6 23162032#7 23162032#8"/>
    </vehicle>
    <vehicle id="79" type="passenger" depart="39.50" departLane="best">
        <route edges="30098185#1 30098185#2 30098185#3 30098185#4 30098185#5 27617819#2 27617819#3 27617819#4 27617819#5 27617819#6 27617819#7 146196600#0 146196600#1 191454927#0 191454927#1 35903166#0 35903166#1 35903166#2 27131168#0 27131168#1"/>
    </vehicle>
    <vehicle id="80" type="passenger" depart="40.00" departLane="best">
        <route edges="190794129#1 190794129#2 190794129#3 190794129#4 190794129#5 -357575329 357575329 -358055173 -255925785#2 -255925785#1 -255925785#0 23162032#0 23162032#1 23162032#2 23162032#3 23162032#4 23162032#5 23162032#6 23162032#7 23162032#8 23162032#9 190525294#0 190525294#1 190525294#2 190525294#3 190525294#4 190525294#5 367453371 34474997#0 34474997#1 34474997#2 34474997#3 34474997#4 34474997#5 34474997#6 30098185#0 35773427#4 35902033#3"/>
    </vehicle>
    <vehicle id="81" type="passenger" depart="40.50" departLane="best">
        <route edges="190816349#2 190816349#3 190816349#4 35901833#0 35901833#1 146546027#0 146546027#1 23162040#2 23162040#3 23161464#0 23161464#1 511066483 511066470 146544718 358195673"/>
    </vehicle>
    <vehicle id="82" type="passenger" depart="41.00" departLane="best">
        <route edges="34474997#5 34474997#6 34474997#7 34474997#8 34474997#9 448479840#0 448479840#1 448479840#2 511066491 358055149 511066518#0 511066518#1 358089846 511066434 511066443#0 511066443#1 359227314#0 359227314#1 72456715#0 72456715#1 277000208#0 -277000208#0"/>
    </vehicle>
    <vehicle id="85" type="passenger" depart="42.50" departLane="best">
        <route edges="35773427#2 35773427#3 30098185#1 30098185#2 30098185#3 30098185#4 30098185#5 27617819#2 27617819#3 27617819#4 27617819#5 27617819#6 27617819#7 190816349#0 190816349#1 190816349#2 190816349#3 190816349#4 35901833#0 35901833#1 35901833#2 35901833#3 35901833#4 358055173"/>
    </vehicle>
    <vehicle id="86" type="passenger" depart="43.00" departLane="best">
        <route edges="23051255#0 23051255#1 23051255#2 23162032#0 23162032#1 23162032#2 23162032#3 23162032#4 23162032#5 23162032#6 23162032#7 23162032#8 23162032#9 190525294#0 190525294#1 190525294#2 190525294#3 190525294#4 190525294#5 367453371 34474997#0 34474997#1 34474997#2 34474997#3 34474997#4 34474997#5 34474997#6 30098185#0 35773427#4 35773427#5"/>
    </vehicle>
    <vehicle id="87" type="passenger" depart="43.50" departLane="best">
        <route edges="-349851317#0 30098185#5 27617819#2 27617819#3 27617819#4 27617819#5 27617819#6 27617819#7 190816349#0 190816349#1 190816349#2 190816349#3 190816349#4 35901833#0 35901833#1 146546027#0 146546027#1 23162040#2 23162040#3 190426957#0 190426957#1 190426957#2 190426957#3 190426957#4"/>
    </vehicle>
    <vehicle id="89" type="passenger" depart="44.50" departLane="best">
        <route edges="190525285#4 190525285#5 358055191#0 358055191#1 75503605#0 75503605#1 23162032#0 23162032#1 23162032#2 23162032#3 23162032#4 23162032#5 23162032#6 23162032#7 23162032#8 23162032#9 190525294#0 190525294#1 190525294#2 190525294#3 190525294#4 190525294#5 367453371 34474997#0 34474997#1 34474997#2 34474997#3 34474997#4 34474997#5 34474997#6 30098185#0 35773427#4 35773427#5 349851320#1"/>
    </vehicle>
    <vehicle id="90" type="passenger" depart="45.00" departLane="best">
        <route edges="27617819#1 27617819#2 27617819#3 27617819#4 27617819#5 27617819#6 27617819#7 146196600#0 146196600#1 191454927#0 191454927#1 35903166#0 35903166#1 35903166#2 27131168#0 27131168#1 27131168#2 190816355 190816353 146544715#0 146544715#1 -146544715#1"/>
    </vehicle>
    <vehicle id="91" type="passenger" depart="45.50" departLane="best">
        <route edges="35902125#5 190525294#3 190525294#4 190525294#5 367453371 34474997#0 34474997#1 34474997#2 34474997#3 34474997#4 34474997#5 34474997#6 34474997#7 34474997#8 34474997#9 448479840#0 448479840#1 448479840#2 511066491 358055149 511066518#0 511066518#1 358089846 511066434 511066443#0 511066443#1 511066490 357424594#0 357424594#1 357424594#2 190816349#0 190816349#1 190816349#2 190816349#3 190816349#4 35901833#0 35901833#1 35901833#2 35901833#3 35901833#4 35901598#0"/>
    </vehicle>
    <vehicle id="92" type="passenger" depart="46.00" departLane="best">
        <route edges="61335135#0 61335135#1 61335135#2 61335135#3 35903166#2 27131168#0"/>
    </vehicle>
    <vehicle id="94" type="passenger" depart="47.00" departLane="best">
        <route edges="35902125#1 30098185#2 30098185#3 30098185#4 30098185#5 27617819#2 27617819#3 27617819#4 27617819#5 27617819#6 27617819#7 190816349#0 190816349#1 190816349#2 190816349#3 190816349#4 35901833#0 35901833#1 35901833#2 35901833#3 35901833#4 -255925785#2 -255925785#1 -255925785#0 23162032#0 23162032#1 23162032#2 23162032#3"/>
    </vehicle>
    <vehicle id="95" type="passenger" depart="47.50" departLane="best">
        <route edges="35901833#0 35901833#1 146546027#0 146546027#1 23162040#2 23162040#3 190426957#0 190426957#1"/>
    </vehicle>
    <vehicle id="96" type="passenger" depart="48.00" departLane="best">
        <route edges="34475191#3 34475191#4 349851315 30098185#5"/>
    </vehicle>
    <vehicle id="97" type="passenger" depart="48.50" departLane="best">
        <route edges="35900161#2 448479840#0 448479840#1"/>
    </vehicle>
    <vehicle id="98" type="passenger" depart="49.00" departLane="best">
        <route edges="190816349#0 190816349#1 190816349#2 190816349#3 190816349#4 35901833#0 35901833#1 35901833#2 35901833#3 35901833#4 358055173 -357575329 357575329 23162040#0"/>
    </vehicle>
    <vehicle id="99" type="passenger" depart="49.50" departLane="best">
        <route edges="27617819#7 146196600#0 146196600#1 511066483 511066470 146544718 358195673 72456715#0 72456715#1"/>
    </vehicle>
    <vehicle id="103" type="passenger" depart="51.50" departLane="best">
        <route edges="511066443#1 511066490 357424594#0 357424594#1 357424594#2 146196600#0 146196600#1"/>
    </vehicle>
    <vehicle id="105" type="passenger" depart="52.50" departLane="best">
        <route edges="-358055173 358055173 -357575329 357575329 23162040#0 23162040#1 23162040#2 23162040#3 23161464#0 23161464#1 511066483 511066470 146544718"/>
    </vehicle>
    <vehicle id="106" type="passenger" depart="53.00" departLane="best">
        <route edges="61279128#2 61279128#3"/>
    </vehicle>
    <vehicle id="107" type="passenger" depart="53.50" departLane="best">
        <route edges="34474997#6 34474997#7 34474997#8 34474997#9 448479840#0 448479840#1 448479840#2 511066491 358055149 511066518#0 511066518#1 358089846 511066434 511066443#0 511066443#1 511066490 357424594#0 357424594#1 357424594#2 190816349#0 190816349#1 190816349#2 190816349#3 190816349#4 35901833#0 35901833#1 146546027#0 146546027#1 23162040#2 23162040#3 190426957#0 190426957#1 190426957#2 190426957#3"/>
    </vehicle>
    <vehicle id="108" type="passenger" depart="54.00" departLane="best">
        <route edges="190794129#4 190794129#5 -357575329 357575329 -358055173 -255925785#2 -255925785#1 -255925785#0 23162032#0 23162032#1 23162032#2 23162032#3 23162032#4 23162032#5 23162032#6 23162032#7 402281056 27617819#1 27617819#2 27617819#3 27617819#4 27617819#5 35902564#0 35902564#1"/>
    </vehicle>
    <vehicle id="109" type="passenger" depart="54.50" departLane="best">
        <route edges="358195684 190525294#0 190525294#1 190525294#2 190525294#3 190525294#4 190525294#5 367453371 34474997#0 34474997#1 34475191#0 34475191#1 35902125#5"/>
    </vehicle>
    <vehicle id="110" type="passenger" depart="55.00" departLane="best">