<routes xmlns:xsi="http://www.w3.org/2001/XMLSchema-instance" xsi:noNamespaceSchemaLocation="http://sumo.dlr.de/xsd/routes_file.xsd">
    <vType id="passenger" maxSpeed="50.00" vClass="passenger" />
    <vehicle depart="0.00" departLane="best" id="0" type="passenger">
        <route edges="-110678541#2 110678541#2 598822149#8 598822149#9 598822149#10 598822149#11 598822149#12 60025761#0 60025761#1 364177901#0 364177901#1 364177901#2 364177901#3 364177901#4 253914396#0 253914396#1 626668179#18 444782962#0 444782962#1 444782962#2 444782962#3 444782962#4 444782962#5 444782962#6 444782962#7 444782962#8 444782962#9 444782962#10 660475564 444782963#0 444782963#1 444782963#2 444782963#3 591411361#0 591411361#1 303687829#0" />
    </vehicle>
    <vehicle depart="0.97" departLane="best" id="1" type="passenger">
        <route edges="625475654#4 228079978#4 228079978#5 228079978#6 548825185#0 548825185#1 548825185#2 548825185#3 548825185#4 591573490#0 591573490#1 591573488#0 591573488#1 591573488#2 591581062#0 591581062#1 627521430#0 627521430#1 627521430#2 627521430#3 545850985 -628525138 -628525139#1 -628525139#0 253914054 627521431#0" />
    </vehicle>
    <vehicle depart="1.94" departLane="best" id="2" type="passenger">
        <route edges="575297077#13 -575297077#13 -575297077#12 -575297077#11 -575297077#10 -575297077#9 626666024#0 626666024#1 626666024#2 626666024#3 626666024#4 337139386#3 337139386#4 337139386#5 337139386#6 592210729 592210728#0 592210728#1 -586296830 -259023836 -259023835 -364177900#4 -221491913#9 -221491913#8 -221491913#7 -221491913#6" />
    </vehicle>
    <vehicle depart="2.91" departLane="best" id="3" type="passenger">
        <route edges="-261713510#1 -261713510#0 -364177901#6 -364177901#5 -364177901#4 -364177901#3 -364177901#2 -364177901#1 -364177901#0 -60025761#1 -60025761#0 -598822149#12 -598822149#11 -598822149#10 -598822149#9 -598822149#8 -110678541#2 627510069#12 627510069#13 627510069#14 627510069#15" />
    </vehicle>
    <vehicle depart="3.88" departLane="best" id="4" type="passenger">
        <route edges="306342709#0 -306342709#0 331613666#2 306544443#0 306544443#1 336863678#0 339760470#4 432975659 432975658 336854539#0 336854539#1 336854539#2 575300033#0 -591691705 -99166465#4 219484137#0 219484137#1 -219484137#1" />
    </vehicle>
    <vehicle depart="4.85" departLane="best" id="5" type="passenger">
        <route edges="592210732#0 -592210732#0 592210123#1 592210123#2 592210123#3 592210728#1 -586296830 -259023836 -259023835 -364177900#4 -221491913#9 -221491913#8 221491913#8" />
    </vehicle>
    <vehicle depart="5.82" departLane="best" id="6" type="passenger">
        <route edges="591581062#1 627521430#0 627521430#1 627521430#2 627521430#3 545850985 545850986#0 545850986#1 545850986#2 575246412#0 575246412#1 575246412#2 328091236#0 328091236#1 328091236#2 328091236#3 328091236#4 328091236#5 328091236#6 328091236#7 328091236#8 328091236#9 328091236#10 575285803#0 575285803#1 -575285803#1" />
    </vehicle>
    <vehicle depart="6.79" departLane="best" id="7" type="passenger">
        <route edges="-591590967#1 591590967#1 575297077#2 575297077#3 -575297077#3" />
    </vehicle>
    <vehicle depart="7.76" departLane="best" id="8" type="passenger">
        <route edges="364177900#3 364177900#4 259023835 259023836 586296830 586296829#0 586296829#1 586296829#2 586296829#3 516272233 516272234#0 516272234#1 627521430#1 627521430#2 627521430#3 545850985 545850986#0 -575236902#4 -575236902#3 -575236902#2 -575236902#1 207706962#4 -207706962#4" />
    </vehicle>
    <vehicle depart="8.73" departLane="best" id="9" type="passenger">
        <route edges="364269703#7 219414218#2 271086447#3 598458204#5 598458204#6 292749328#3 292749328#4 328091241#0 328091241#1 328091241#2 328091241#3 328091241#4 328091241#5 548825197 228079978#0 228079978#1 228079978#2 228079978#3 228079978#4 228079978#5 228079978#6 548825185#0 303687828#0 303687828#1 -303687830#1 -303687830#0 591411361#3" />
    </vehicle>
    <vehicle depart="9.70" departLane="best" id="10" type="passenger">
        <route edges="296382591#2 571716816#6 331613666#2 306544443#0 306544443#1 336863678#0 339760470#4 432975659 432975658 336854539#0 336854539#1 336854539#2 575300033#0 575300033#1 575300033#2 355232305#0 355232305#1 239433850#0 239433850#1 239433850#2 239433850#3 575276709#0 575276709#1" />
    </vehicle>
    <vehicle depart="10.67" departLane="best" id="11" type="passenger">
        <route edges="592361394#1 -592361394#1 -592361394#0 -592365237#2 292749343#2 232289878 232289883#0 232289883#1 598822149#3 598822149#4 598822149#5 598822149#6 598822149#7 598822149#8 598822149#9 -547090949#2 -547090949#1 -627583469#1" />
    </vehicle>
    <vehicle depart="11.64" departLane="best" id="12" type="passenger">
        <route edges="260308083#1 364177901#4 253914396#0 253914396#1 253914396#2 253914396#3 627521429 627521430#0 627521430#1 627521430#2 627521430#3 545850985 545850986#0 545850986#1 545850986#2 575246412#0 575246412#1 575246412#2 328091236#0 328091236#1 328091236#2 328091236#3 328091236#4 328091236#5 328091236#6 328091236#7 328091236#8 328091236#9 328091236#10 575285803#0 575285803#1 660443285#0 660443285#1 660443285#2 87657284#0 87657284#1 87657284#2 87657284#3 610897309#6" />
    </vehicle>
    <vehicle depart="12.61" departLane="best" id="13" type="passenger">
        <route edges="219484134#1 598459723 -272607746#2 -272607746#1 -272607746#0 -328091236#8 -328091236#7 -328091236#6 -328091236#5 -328091236#4 -328091236#3 -328091236#2 -328091236#1 -328091236#0 -336854542#24 -336854542#23 -336854542#22 -336854542#21 -336854542#20 -336854542#19 -336854542#18 -336854542#17 -336854542#16 -336854542#15 -575168933#10 -575168933#9 -575168933#8 -575168933#7 -575168933#6 -575168933#5 -575168933#4 -575168933#3 -575168933#2 -575168933#1 -575168933#0 -586296830 -259023836 -259023835 -364177900#4 -364177900#3 -364177900#2 -364177900#1 -364177900#0 -60025761#1 -60025761#0 -598822149#12 -598822149#11 -598822149#10 -598822149#9 -598822149#8 -598822149#7 -598822149#6 -598822149#5 -598822149#4 -598822149#3" />
    </vehicle>
    <vehicle depart="13.58" departLane="best" id="14" type="passenger">
        <route edges="575246411#8 575246411#9 575246411#10 -575168933#7 -575168933#6 -575168933#5 -575168933#4 -575168933#3 -575168933#2 -575168933#1 -575168933#0 -586296830 586296831#0 586296831#1 586296831#2 586296831#3 586296831#4 586296831#5 586296831#6 292749350#0 292749350#1 292749350#2 592955209#0 575163105#4" />
    </vehicle>
    <vehicle depart="14.55" departLane="best" id="15" type="passenger">
        <route edges="34264098#0 -34264098#0 516272232#2 516272232#3 516272232#4 516272232#5 586296830 575168933#0 575168933#1 575168933#2 575168933#3 575168933#4 575168933#5 575168933#6 575168933#7 575168933#8 575168933#9 575168933#10 575168933#11 575168933#12 444782964#0 444782964#1 444782964#2 355216110 355232305#0 355232305#1 239433850#0 239433850#1 239433850#2 239433850#3 -575343609" />
    </vehicle>
    <vehicle depart="15.52" departLane="best" id="16" type="passenger">
        <route edges="591411361#7 -591411361#7 364269702#0 364269702#1 548825184#0 548825184#1 548825184#2 548825184#3 548825184#4 292749327#0 292749327#1 292749327#2 292749327#3 328093146#0 328093146#1 598458204#2 598458204#3 598458204#4 598458204#5 598458204#6 292749328#3 293657008#0 327914324#4 219484132#1 598459724" />
    </vehicle>
    <vehicle depart="16.49" departLane="best" id="17" type="passenger">
        <route edges="-239433855#1 -239433849#0 -355232305#2 -355232305#1 -355232305#0 -355216110 -444782964#2 -444782964#1 -444782964#0 591697192#4 -626641322#2 626641322#2" />
    </vehicle>
    <vehicle depart="17.46" departLane="best" id="18" type="passenger">
        <route edges="625475654#4 228079978#4 548825184#2 548825184#3 548825184#4 292749327#0 292749327#1 292749327#2 292749327#3 328093146#0 328093146#1 598458204#2 598458204#3 598458204#4 598458204#5 598458204#6" />
    </vehicle>
    <vehicle depart="18.43" departLane="best" id="19" type="passenger">
        <route edges="260743648#0 260743648#1 -219414220#1 -219414220#0 -219414218#4 -219414218#3 271086447#3 598458204#5 598458204#6 292749328#3 292749328#4 -87657284#4 -87657284#3 -87657284#2 -87657284#1 -87657284#0 -660443285#2 -660443285#1 -660443285#0 -575285803#1 -575285803#0 -328091236#10 -328091236#9 -328091236#8 -328091236#7 -328091236#6 -328091236#5 -328091236#4 -328091236#3 -328091236#2 -328091236#1 -328091236#0 -336854542#24 -336854542#23 -336854542#22 -336854542#21 -336854542#20 -336854542#19 -336854542#18 -336854542#17 -336854542#16 -336854542#15 -575168933#10 -575168933#9 -575168933#8 -575168933#7 -575168933#6 -575168933#5 -575168933#4 -575168933#3 -575168933#2 -575168933#1 -575168933#0 -586296830 586296831#0 586296831#1 586296831#2 626666024#6 221491914 444818070 -444818070" />
    </vehicle>
    <vehicle depart="19.40" departLane="best" id="20" type="passenger">
        <route edges="303687830#3 -303687830#3 -303687831#1" />
    </vehicle>
    <vehicle depart="20.37" departLane="best" id="21" type="passenger">
        <route edges="-244792258#2 -628105621#1 -628105621#0 627522679#2 627522679#3 627522679#4 548825183 364269702#0 364269702#1 548825184#0 548825184#1 548825184#2 548825184#3 548825184#4 292749327#0 292749327#1 292749327#2 292749327#3 328093146#0 328093146#1 328093146#2 328093146#3 328093146#4 219481949#0 219481949#1 219481949#2 219481949#3 328093147#0 328091237#7 328091237#8 328091237#9 82380423#0 82380423#1 82380423#2 82380423#3 82380423#4 82380423#5 82380423#6 82380423#7 82380423#8 82380423#9 82380423#10 82380423#11 82380423#12" />
    </vehicle>
    <vehicle depart="21.34" departLane="best" id="22" type="passenger">
        <route edges="-429355493 -429355496#0 626666024#3 626666024#4 337139386#3 337139386#4 337139386#5 337139386#6 592210729 592210728#0 592210728#1 -586296830 -259023836 -259023835 -364177900#4 -221491913#9 -221491913#8 -221491913#7 -221491913#6 -221491913#5 221491913#5" />
    </vehicle>
    <vehicle depart="22.31" departLane="best" id="23" type="passenger">
        <route edges="626668179#2 -221491916 -444818056 -444818067 -444818070 -221491914 -626666024#6 -626666024#5 337139386#3 337139386#4 337139386#5 337139386#6 592210729 592210728#0 592210728#1 586296829#0 586296829#1 586296829#2 586296829#3 516272233 516272234#0 516272234#1 627521430#1 627521430#2 627521430#3 545850985" />
    </vehicle>
    <vehicle depart="23.28" departLane="best" id="24" type="passenger">
        <route edges="-592210727 592210728#0 592210728#1 -586296830 -259023836 -259023835 -364177900#4 -364177900#3 -364177900#2 -364177900#1 -364177900#0 364177901#0 364177901#1 364177901#2 364177901#3 364177901#4 364177901#5 364177901#6 364177901#7 364177901#8 627522678 627522679#0 627522679#1 628105621#0 628105621#1 628105621#2 628105621#3 -628102912#1 628102912#1" />
    </vehicle>
    <vehicle depart="24.25" departLane="best" id="25" type="passenger">
        <route edges="-219484134#0 -575285803#1 -575285803#0 -328091236#10 -328091236#9 -328091236#8 -328091236#7 -328091236#6 -328091236#5 -328091236#4 -328091236#3 -328091236#2 -328091236#1 -328091236#0 -336854542#24 -336854542#23 -336854542#22 -336854542#21 -336854542#20 -336854542#19 -336854542#18 -336854542#17 -336854542#16 -336854542#15 575168933#11 575168933#12 444782964#0 444782964#1 444782964#2 355216028#0 355216028#1 355216028#2 575300036#0 575300036#1 432975661 432975660 219481947 336863680#0 336863680#1 336863680#2 -202795297#3" />
    </vehicle>
    <vehicle depart="25.22" departLane="best" id="26" type="passenger">
        <route edges="-336695115#2 -336695115#1 -336695115#0 548825185#2 548825185#3 548825185#4 591573490#0 591573490#1 591573488#0 591573488#1 591573488#2 591581062#0 591581062#1 359148068#0 359148068#1 516272231 516272232#0 516272232#1 516272232#2 516272232#3 516272232#4 516272232#5 -259023836 -259023835 -364177900#4 -364177900#3 -626668179#11 -626668179#10" />
    </vehicle>
    <vehicle depart="26.19" departLane="best" id="27" type="passenger">
        <route edges="336695106#1 -336695119#1 -248415638#2 -575241795#1 -575241795#0 -575236902#5 545850986#1 545850986#2 575246412#0 575246412#1 575246412#2 328091236#0 328091236#1 328091236#2 328091236#3 328091236#4 328091236#5 328091236#6 328091236#7 328091236#8 328091236#9 328091236#10 575285803#0 575285803#1 660443285#0 660443285#1 660443285#2 328093146#0 328093146#1 598458204#2 598458204#3 364269703#7" />
    </vehicle>
    <vehicle depart="27.16" departLane="best" id="28" type="passenger">
        <route edges="328091237#9 -328091237#9 -328091237#8 -328091237#7 -328091237#6 -328091237#5 -328091237#4 -328091237#3 -328091237#2 -328091237#1 -328091237#0 -336854542#24 -336854542#23 -336854542#22 -336854542#21 -336854542#20 -336854542#19 -336854542#18 -336854542#17 -336854542#16 -336854542#15 -575168933#10 -575168933#9 -575168933#8 -575168933#7 -575168933#6 -575168933#5 -575168933#4 -575168933#3 -575168933#2 -575168933#1 -575168933#0 -586296830 -259023836 -259023835 -364177900#4 -364177900#3 -364177900#2 627510069#5 627510069#6 627510069#7 627510069#8 627510069#9 627510069#10" />
    </vehicle>
    <vehicle depart="28.13" departLane="best" id="29" type="passenger">
        <route edges="-239545638#0 -328091237#8 -328091237#7 -328091237#6 -328091237#5 -328091237#4 -328091237#3 -328091237#2 -328091237#1 -328091237#0 -575246412#2 -575246412#1 -575246412#0 -545850986#2 -575247212#5 -575247212#4 -575247212#3 -575247212#2 575247212#2" />
    </vehicle>
    <vehicle depart="29.10" departLane="best" id="30" type="passenger">
        <route edges="361514595 364177901#2 364177901#3 364177901#4 253914396#0 253914396#1 253914396#2 253914396#3 627521429 627521430#0 359148066 591581063#0 591581063#1 444782967#0 444782967#1 591573493#0 591573493#1 -336695115#0 548825185#2 -303687831#2 -303687830#2 -303687830#1 303687829#1" />
    </vehicle>
    <vehicle depart="30.07" departLane="best" id="31" type="passenger">
        <route edges="-308047940#3 -308047940#2 -308047940#1 328091233#3 432975659 432975658 336854539#0 336854539#1 336854539#2 575300033#0 575300033#1 575300033#2 -355216110 -444782964#2 -444782964#1 -444782964#0 -575168933#12 -575168933#11 -575168933#10 -575168933#9 -575168933#8 -575168933#7 -575168933#6 -575168933#5 -575168933#4 -575168933#3 -575168933#2 -575168933#1 -575168933#0 -586296830 -259023836 -259023835 -364177900#4 -364177900#3 -364177900#2" />
    </vehicle>
    <vehicle depart="31.04" departLane="best" id="32" type="passenger">
        <route edges="-598822149#8 598822149#8 598822149#9 598822149#10 598822149#11 598822149#12 60025761#0 60025761#1 364177900#0 364177900#1 364177900#2 364177900#3 364177900#4 259023835 259023836 586296830 575168933#0 575168933#1 575168933#2 575168933#3 575168933#4 575168933#5 575168933#6 575168933#7 575168933#8 575168933#9 575168933#10 336854542#15 336854542#16 336854542#17 336854542#18 336854542#19 336854542#20 336854542#21 336854542#22 336854542#23 336854542#24 328091236#0 328091236#1 328091236#2 328091236#3 328091236#4 328091236#5 328091236#6 328091236#7 328091236#8 328091236#9 328091236#10 575285803#0 575285803#1 660443285#0 660443285#1 660443285#2 328093146#0 328093146#1 598458204#2 598458204#3 598458204#4 598458204#5 598458204#6 292749328#3 293657008#0 293657008#1" />
    </vehicle>
    <vehicle depart="32.01" departLane="best" id="33" type="passenger">
        <route edges="575300034 -575300034 575300033#0 575300033#1 575300033#2 591693020 591693019#0 591693019#1 591693019#2 591693019#3 591693019#4 591693019#5 591693019#6 591693019#7 591693019#8 591693019#9 591693019#10 591693019#11 591693019#12 328091238#0 328091238#1 219481948#0 219481948#1 219481948#2 219481948#3 219481948#4 292749328#0 292749328#1 -219414218#4 -219414218#3 271086447#3 598458204#5 598458204#6 292749328#3 292749328#4 328091241#0 328091241#1 328091241#2 328091241#3 328091241#4 328091241#5 548825197 228079978#0 228079978#1 228079978#2 228079978#3 228079978#4 228079978#5 228079978#6 548825185#0 548825185#1 548825185#2" />
    </vehicle>
    <vehicle depart="32.98" departLane="best" id="34" type="passenger">
        <route edges="-598009970#2 -598009970#1 -598009970#0 -575325489 -575276709#2 -575276709#1 -575276709#0 -239433850#3 -239433850#2 -239433850#1 -239433850#0 -355232305#1 -355232305#0 -355216110 -444782964#2 -444782964#1 -444782964#0 -575168933#12 -575168933#11 -575168933#10 -575168933#9 -575168933#8 -575168933#7 -575168933#6 -575168933#5 -575168933#4 -575168933#3 -575168933#2 -575168933#1 -575168933#0 -586296830 -259023836 -259023835 -364177900#4 -364177900#3 -626668179#11 -626668179#10 -626668179#9 -626668179#8 -626668179#7 -626668179#6 626668179#6" />
    </vehicle>
    <vehicle depart="34.92" departLane="best" id="35" type="passenger">
        <route edges="-207841904#2 444782966#2 444782966#3 591581062#0 591581062#1 359148068#0 359148068#1 516272231 516272232#0 516272232#1 516272232#2 516272232#3 516272232#4 516272232#5 -259023836 -259023835 -364177900#4 -364177900#3 -626668179#11 -626668179#10 -626668179#9 -626668179#8 -626668179#7 -626668179#6 -626668179#5 -626668179#4 -626668179#3" />
    </vehicle>
    <vehicle depart="35.89" departLane="best" id="36" type="passenger">
        <route edges="-60025761#1 60025761#1 364177900#0 364177900#1 364177900#2 364177900#3 364177900#4 259023835 259023836 586296830 575168933#0 575168933#1 575168933#2 575168933#3 575168933#4 575168933#5 575168933#6 575168933#7 575168933#8 575168933#9 -575168933#9" />
    </vehicle>
    <vehicle depart="36.86" departLane="best" id="37" type="passenger">
        <route edges="-627521430#0 359148068#0 359148068#1 516272231 516272232#0 516272232#1 516272232#2 516272232#3 516272232#4 516272232#5 586296830 575168933#0 575168933#1 575168933#2 575168933#3 575168933#4 575168933#5 313786195#0 313786195#1 313786195#2 -591590967#2" />
    </vehicle>
    <vehicle depart="37.83" departLane="best" id="38" type="passenger">
        <route edges="-260409541#1 -260409541#0 -627521432 253914396#1 253914396#2 253914396#3 627521429 627521430#0 627521430#1 627521430#2 627521430#3 545850985 545850986#0 545850986#1 545850986#2 575246412#0 207706960#0 207706960#1" />
    </vehicle>
    <vehicle depart="38.80" departLane="best" id="39" type="passenger">
        <route edges="-221491915#3 -221491915#2 -221491915#1 -221491915#0 336854542#5 336854542#6 336854542#7 336854542#8 336854542#9 336854542#10 336854542#11 336854542#12 336854542#13 336854542#14 336854542#15 336854542#16 336854542#17 336854542#18 336854542#19 336854542#20 336854542#21 336854542#22 336854542#23 336854542#24 328091236#0 328091236#1 328091236#2 328091236#3 328091236#4 328091236#5 328091236#6 328091236#7 328091236#8 272607746#0 -272607746#0" />
    </vehicle>
    <vehicle depart="39.77" departLane="best" id="40" type="passenger">
        <route edges="-255980394#3 255980394#3 255980394#4 255980394#5 255980394#6 364177901#7 364177901#8 627522678 627522679#0 627522679#1 627522679#2 627522679#3 627522679#4 548825183 364269702#0 364269702#1 548825184#0 548825184#1 228079978#5 228079978#6" />
    </vehicle>
    <vehicle depart="40.74" departLane="best" id="41" type="passenger">
        <route edges="-592365237#1 571716818#1 571716818#2 571716818#3 292749342#0 575163105#7 292749351#0 292749351#1 337139386#0 337139386#1 337139386#2 337139386#3 337139386#4 337139386#5 337139386#6 592210729 592210728#0 592210728#1 575168933#0 575168933#1 575168933#2 575168933#3 575168933#4 575168933#5 575168933#6 575168933#7 575168933#8 575168933#9 575168933#10 575168933#11 575168933#12 444782964#0 444782964#1 444782964#2 355216110 591693020 591693019#0 591693019#1 591693019#2 591693019#3 591693019#4 591693019#5 591693019#6 591693019#7 591693019#8 591693019#9 591693019#10 591693019#11 328091237#8 -328091237#8" />
    </vehicle>
    <vehicle depart="41.71" departLane="best" id="42" type="passenger">
        <route edges="-627589797#4 627589797#4 361514592 60025761#1 364177900#0 364177900#1 364177900#2 364177900#3 364177900#4 259023835 259023836 586296830 575168933#0 575168933#1 575168933#2 575168933#3 575168933#4 575168933#5 575168933#6 575168933#7 575168933#8 575168933#9 -313786403#1" />
    </vehicle>
    <vehicle depart="42.68" departLane="best" id="43" type="passenger">
        <route edges="625475654#7 -87657284#0 -660443285#2 -660443285#1 -660443285#0 -575285803#1 -575285803#0 -328091236#10 -328091236#9 -328091236#8 -328091236#7 -328091236#6 -328091236#5 -362212173#3 -362212173#2 -362212173#1 -362212173#0 -207706961#1 575247212#3 -575247212#3" />
    </vehicle>
    <vehicle depart="43.65" departLane="best" id="44" type="passenger">
        <route edges="-313786195#0 575168933#6 575168933#7 575168933#8 575168933#9 575168933#10 575168933#11 575168933#12 444782964#0 444782964#1 444782964#2 355216110 355232305#0 -82380423#14 591695796" />
    </vehicle>
    <vehicle depart="44.62" departLane="best" id="45" type="passenger">
        <route edges="282872881 -34264258#4 -34264258#3 34264260#1 591581062#1 627521430#0 627521430#1 627521430#2 627521430#3 545850985 545850986#0 545850986#1 545850986#2 575246412#0 575246412#1 575246412#2 328091236#0 328091236#1 328091236#2 328091236#3 328091236#4 328091236#5 328091236#6 328091236#7 328091236#8 328091236#9 328091236#10 575285803#0 575285803#1 660443285#0 660443285#1 660443285#2 87657284#0 87657284#1 87657284#2 87657284#3 87657284#4 328091241#0 354073849#0 354073849#1 -575289893#0" />
    </vehicle>
    <vehicle depart="45.59" departLane="best" id="46" type="passenger">
        <route edges="-282872881 -444782962#2 -444782962#1 -444782962#0 627521431#1 627521431#2 -364177901#5 -364177901#4 -364177901#3 -364177901#2 -364177901#1 -364177901#0 -60025761#1 -60025761#0 -598822149#12 -598822149#11 -598822149#10 -598822149#9 -598822149#8 110678541#3 110678541#4" />
    </vehicle>
    <vehicle depart="46.56" departLane="best" id="47" type="passenger">
        <route edges="34264258#5 -34264258#5 -34264258#4 -34264258#3 34264260#1 591581062#1 627521430#0 359148066 591581063#0 591581063#1 444782967#0 444782967#1 591573493#0 591573493#1 -336695115#0 548825185#2" />
    </vehicle>
    <vehicle depart="47.53" departLane="best" id="48" type="passenger">
        <route edges="-105616910 325707361 -575304129 -341739964#2 -341739964#1 -341739964#0 336854539#2 575300033#0 575300033#1 575300033#2 591693020 591693019#0 591693019#1 591693019#2 591693019#3 591693019#4 591693019#5 591693019#6 591693019#7 591693019#8 591693019#9 591693019#10 591693019#11 -328091237#7 -328091237#6 575257677#0 575257677#1 575343617#0 -387167476#0" />
    </vehicle>
    <vehicle depart="48.50" departLane="best" id="49" type="passenger">
        <route edges="219484137#2 244801331#2 244801331#3 244801331#4 244801331#5 244801331#6 -336854542#9 -336854542#8 -336854542#7 -336854542#6 -336854542#5 -336854542#4 -336854542#3 -336854542#2 -336854542#1 -336854542#0 336854541#0 575297077#19" />
    </vehicle>
    <vehicle depart="49.47" departLane="best" id="50" type="passenger">
        <route edges="260743648#2 260743648#3 -292749347#1 -292749347#0 -219481948#4 -219481948#3 -219481948#2 -219481948#1 -219481948#0 219481949#0 219481949#1 219481949#2 219481949#3 328093147#0 -328091237#6 -328091237#5 -328091237#4 -328091237#3 -328091237#2 -328091237#1 -328091237#0 -336854542#24 -336854542#23 -336854542#22 -336854542#21 -336854542#20 -336854542#19 -336854542#18 -336854542#17 -336854542#16 -336854542#15 -575168933#10 -575168933#9 -575168933#8 -575168933#7 -575168933#6 -575168933#5 -575168933#4 -575168933#3 -575168933#2 -575168933#1 -575168933#0 -586296830 586296831#0 586296831#1 586296831#2 626666024#6 221491914 444818070 444818067 444818056 221491916 110678541#0 110678541#1 627510069#12 627510069#13 -627510069#13" />
    </vehicle>
    <vehicle depart="50.44" departLane="best" id="51" type="passenger">
        <route edges="-82380423#11 598014199 591693019#4 591693019#5 591693019#6 -278901112#7 -278901112#6" />
    </vehicle>
    <vehicle depart="51.41" departLane="best" id="52" type="passenger">
        <route edges="-626666024#1 -626666024#0 -221491915#4 -221491915#3 -221491915#2 -221491915#1 -221491915#0 336854542#5 336854542#6 336854542#7 336854542#8 336854542#9 336854542#10 336854542#11 336854542#12 336854542#13 336854542#14 575168933#11 575168933#12 444782964#0 444782964#1 444782964#2 355216110 591693020 591693019#0 591693019#1 591693019#2 591693019#3 591693019#4 591693019#5 591693019#6 591693019#7 591693019#8 591693019#9 591693019#10 591693019#11 591693019#12 328091238#0 328091238#1 219481948#0 219481948#1 219481948#2 219481948#3 219481948#4 292749347#0 292749347#1 260743648#4 301277276#1 301277276#2" />
    </vehicle>
    <vehicle depart="52.38" departLane="best" id="53" type="passenger">
        <route edges="627522679#0 -627522679#0 -627522678 -364177901#8 -364177901#7 -364177901#6 -364177901#5 253914396#0 253914396#1 253914396#2 253914396#3 627521429 627521430#0 627521430#1 627521430#2 627521430#3 545850985 545850986#0 545850986#1 545850986#2 575246412#0 575246412#1 575246412#2 -336854542#24 -336854542#23 -336854542#22 -336854542#21 -336854542#20 -336854542#19 -336854542#18 -336854542#17 -336854542#16 -336854542#15 575168933#11 575168933#12 591697192#4" />
    </vehicle>
    <vehicle depart="53.35" departLane="best" id="54" type="passenger">
        <route edges="297490324 221491913#6 221491913#7 221491913#8 -272605929 34941499" />
    </vehicle>
    <vehicle depart="54.32" departLane="best" id="55" type="passenger">
        <route edges="240137737#1 -592963199#3 597260442 597251672#0 597251672#1 -575297077#14 -575297077#13 -575297077#12 -575297077#11 -575297077#10 -575297077#9 -221491915#4 -221491915#3 -221491915#2 -221491915#1 -221491915#0 336854542#5 336854542#6 336854542#7 99166465#2 -591697192#9 -598440183 598440183" />
    </vehicle>
    <vehicle depart="55.29" departLane="best" id="56" type="passenger">
        <route edges="240137737#3 -240137737#3 337139386#2 337139386#3 337139386#4 337139386#5 337139386#6 592210729 592210728#0 592210728#1 575168933#0 575168933#1 575168933#2 575168933#3 575168933#4 575168933#5 575168933#6 575168933#7 575168933#8 575168933#9 575168933#10 336854542#15 336854542#16 336854542#17 336854542#18 336854542#19 336854542#20 336854542#21 336854542#22 336854542#23 336854542#24 328091236#0 328091236#1 328091236#2 328091236#3 328091236#4 328091236#5 328091236#6 328091236#7 328091236#8 328091236#9 328091236#10 575285803#0 575285803#1 660443285#0 660443285#1 660443285#2 87657284#0 625475654#8" />
    </vehicle>
    <vehicle depart="56.26" departLane="best" id="57" type="passenger">
        <route edges="-272605930#0 -626668179#9 -626668179#8 -626668179#7 -626668179#6 -626668179#5 -626668179#4 -626668179#3 -626668179#2 -626668179#1 -626668179#0 -598844320 -598844319 -221491920#2 -221491920#1 -221491920#0" />
    </vehicle>
    <vehicle depart="57.23" departLane="best" id="58" type="passenger">
        <route edges="-628525139#1 -628525139#0 253914054 627521431#0 444782962#0 444782962#1 -444782962#1" />
    </vehicle>
    <vehicle depart="58.20" departLane="best" id="59" type="passenger">
        <route edges="-592963199#7 -592963199#6 -592963199#5 -592963199#4 -592963199#3 597260442 597251672#0 597251672#1 -575297077#14 -575297077#13 -575297077#12 -575297077#11 -575297077#10 -575297077#9 -221491915#4 -221491915#3 -221491915#2 -221491915#1 -221491915#0 336854542#5 336854542#6 336854542#7 336854542#8 336854542#9 336854542#10 336854542#11 336854542#12 336854542#13 336854542#14 575168933#11 575168933#12 444782964#0 444782964#1 444782964#2 355216110 591693020 591693019#0 591693019#1 591693019#2 591693019#3 591693019#4 591693019#5 591693019#6 591693019#7 591693019#8 591693019#9 591693019#10 591693019#11 591693019#12 328091238#0 328091238#1 292749329#0 292749329#1 292749329#2 322998174" />
    </vehicle>
    <vehicle depart="59.17" departLane="best" id="60" type="passenger">
        <route edges="292749342#0 575163105#7 292749351#0 292749351#1 337139386#0 337139386#1 337139386#2 337139386#3 337139386#4 337139386#5 337139386#6 592210729 -592210732#2 -592210732#1 -592210732#0 -592210123#0 -244801331#11 -244801331#10" />
    </vehicle>
    <vehicle depart="60.14" departLane="best" id="61" type="passenger">
        <route edges="474647807#1 -474647807#1 219481949#2 219481949#3 328093147#0 -328091237#6 -328091237#5 -328091237#4 -328091237#3 -328091237#2 -328091237#1 -328091237#0 -336854542#24 -336854542#23 -336854542#22 -336854542#21 -336854542#20 -336854542#19 -336854542#18 -336854542#17 -336854542#16 -336854542#15 -575168933#10 -575168933#9 -575168933#8 -575168933#7 -575168933#6 -575168933#5 -575168933#4 -575168933#3 -575168933#2 -575168933#1 -575168933#0 -586296830 -259023836 -259023835 -364177900#4 -364177900#3 -364177900#2 -364177900#1 -364177900#0 -60025761#1 -361514592 627589797#5 627583469#0 -627583469#0" />
    </vehicle>
    <vehicle depart="61.11" departLane="best" id="62" type="passenger">
        <route edges="575293786#5 575246412#0 575246412#1 575246412#2 328091237#0 328091237#1 328091237#2 328091237#3 328091237#4 328091237#5 328091237#6 328091237#7 328091237#8 328091237#9 82380423#0 82380423#1" />
    </vehicle>
    <vehicle depart="62.08" departLane="best" id="63" type="passenger">
        <route edges="-598436979 598440183 591697192#9 -99166465#2 -336854542#7 -336854542#6 -336854542#5 -336854542#4 -336854542#3 -336854542#2 -336854542#1 -336854542#0 -336863676 -587779765#2 587779765#2" />
    </vehicle>
    <vehicle depart="63.05" departLane="best" id="64" type="passenger">
        <route edges="627510069#12 627510069#13 627510069#14 627510069#15 627510069#16 -626931224#0 -445365483 -598844319 -221491920#2 -221491920#1 636915715#1 232289879 571716818#0 571716818#1 571716818#2 571716818#3 292749342#0 292749342#1 292749342#2 292749342#3" />
    </vehicle>
    <vehicle depart="64.02" departLane="best" id="65" type="passenger">