<additional>
    <tlLogic id="1031440966" offset="0" programID="1" type="static">
        <phase duration="9" state="GgGg" />
        <phase duration="5" state="yyyy" />
    </tlLogic>
    <tlLogic id="1031441085" offset="0" programID="1" type="static">
        <phase duration="55" state="GGgrrrrGgg" />
        <phase duration="5" state="yygrrrrygg" />
        <phase duration="43" state="rrGrrrrrGG" />
        <phase duration="5" state="rryrrrrryy" />
        <phase duration="26" state="rrrGGGGrrr" />
        <phase duration="5" state="rrryyyyrrr" />
    </tlLogic>
    <tlLogic id="1031441285" offset="0" programID="1" type="static">
        <phase duration="48" state="GgGg" />
        <phase duration="5" state="yyyy" />
    </tlLogic>
    <tlLogic id="1031441690" offset="0" programID="1" type="static">
        <phase duration="32" state="GggGGgrrrr" />
        <phase duration="5" state="yggyygrrrr" />
        <phase duration="16" state="rGGrrGrrrr" />
        <phase duration="5" state="ryyrryrrrr" />
        <phase duration="44" state="rrrrrrGGGG" />
        <phase duration="5" state="rrrrrryyyy" />
    </tlLogic>
    <tlLogic id="1031441843" offset="0" programID="1" type="static">
        <phase duration="30" state="GGggrrrrGGggrrrr" />
        <phase duration="5" state="yyggrrrryyggrrrr" />
        <phase duration="59" state="rrGGrrrrrrGGrrrr" />
        <phase duration="5" state="rryyrrrrrryyrrrr" />
        <phase duration="60" state="rrrrGGggrrrrGGgg" />
        <phase duration="5" state="rrrryyggrrrryygg" />
        <phase duration="41" state="rrrrrrGGrrrrrrGG" />
        <phase duration="5" state="rrrrrryyrrrrrryy" />
    </tlLogic>
    <tlLogic id="1031441857" offset="0" programID="1" type="static">
        <phase duration="11" state="GGggrrrrGGggrrrr" />
        <phase duration="5" state="yyggrrrryyggrrrr" />
        <phase duration="55" state="rrGGrrrrrrGGrrrr" />
        <phase duration="5" state="rryyrrrrrryyrrrr" />
        <phase duration="16" state="rrrrGGggrrrrGGgg" />
        <phase duration="5" state="rrrryyggrrrryygg" />
        <phase duration="63" state="rrrrrrGGrrrrrrGG" />
        <phase duration="5" state="rrrrrryyrrrrrryy" /> 
    </tlLogic>
    <tlLogic id="1069364851" offset="0" programID="1" type="static">
        <phase duration="13" state="G" />
        <phase duration="5" state="y" />
    </tlLogic>
    <tlLogic id="1069364854" offset="0" programID="1" type="static">
        <phase duration="62" state="rrrrrGggGGg" />
        <phase duration="5" state="rrrrryggyyg" />
        <phase duration="63" state="rrrrrrGGrrG" />
        <phase duration="5" state="rrrrrryyrry" />
        <phase duration="43" state="GGGGGrrrrrr" />
        <phase duration="5" state="yyyyyrrrrrr" />
    </tlLogic>
    <tlLogic id="1069364931" offset="0" programID="1" type="static">
        <phase duration="23" state="GgGg" />
        <phase duration="5" state="yyyy" />
    </tlLogic>
    <tlLogic id="1069364967" offset="0" programID="1" type="static">
        <phase duration="42" state="GGGGrrr" />
        <phase duration="5" state="yyyyrrr" />
        <phase duration="14" state="rrrrGGG" />
        <phase duration="5" state="rrrryyy" />
    </tlLogic>
    <tlLogic id="1069365087" offset="0" programID="1" type="static">
        <phase duration="25" state="rrrrrGggGGg" />
        <phase duration="5" state="rrrrryggyyg" />
        <phase duration="4" state="rrrrrrGGrrG" />
        <phase duration="5" state="rrrrrryyrry" />
        <phase duration="21" state="GGGGGrrrrrr" />
        <phase duration="5" state="yyyyyrrrrrr" />
    </tlLogic>
    <tlLogic id="1069365093" offset="0" programID="1" type="static">
        <phase duration="35" state="GGGGrr" />
        <phase duration="5" state="yyyyrr" />
        <phase duration="26" state="rrrrGG" />
        <phase duration="5" state="rrrryy" />
    </tlLogic>
    <tlLogic id="1069365138" offset="0" programID="1" type="static">
        <phase duration="11" state="gG" />
        <phase duration="5" state="yy" />
        <phase duration="48" state="rG" />
        <phase duration="5" state="ry" />
    </tlLogic>
    <tlLogic id="1069365148" offset="0" programID="1" type="static">
        <phase duration="49" state="rrrGggGGg" />
        <phase duration="5" state="rrryggyyg" />
        <phase duration="34" state="rrrrGGrrG" />
        <phase duration="5" state="rrrryyrry" />
        <phase duration="21" state="GGGrrrrrr" />
        <phase duration="5" state="yyyrrrrrr" />
    </tlLogic>
    <tlLogic id="1069365223" offset="0" programID="1" type="static">
        <phase duration="47" state="GggGGgrrr" />
        <phase duration="5" state="yggyygrrr" />
        <phase duration="30" state="rGGrrGrrr" />
        <phase duration="5" state="ryyrryrrr" />
        <phase duration="19" state="rrrrrrGGG" />
        <phase duration="5" state="rrrrrryyy" />
    </tlLogic>
    <tlLogic id="1069365254" offset="0" programID="1" type="static">
        <phase duration="21" state="G" />
        <phase duration="5" state="y" />
    </tlLogic>
    <tlLogic id="1069365270" offset="0" programID="1" type="static">
        <phase duration="42" state="GggGGgrrr" />
        <phase duration="5" state="yggyygrrr" />
        <phase duration="56" state="rGGrrGrrr" />
        <phase duration="5" state="ryyrryrrr" />
        <phase duration="34" state="rrrrrrGGG" />
        <phase duration="5" state="rrrrrryyy" />
    </tlLogic>
    <tlLogic id="1069365412" offset="0" programID="1" type="static">
        <phase duration="51" state="GGrr" />
        <phase duration="5" state="yyrr" />
        <phase duration="58" state="rrGG" />
        <phase duration="5" state="rryy" />
    </tlLogic>
    <tlLogic id="1069365532" offset="0" programID="1" type="static">
        <phase duration="5" state="rrrGGgGgg" />
        <phase duration="5" state="rrryygygg" />
        <phase duration="58" state="rrrrrGrGG" />
        <phase duration="5" state="rrrrryryy" />
        <phase duration="57" state="GGgGrrrrr" />
        <phase duration="5" state="yyyyrrrrr" />
    </tlLogic>
    <tlLogic id="1069365602" offset="0" programID="1" type="static">
        <phase duration="24" state="GGrr" />
        <phase duration="5" state="yyrr" />
        <phase duration="32" state="rrGG" />
        <phase duration="5" state="rryy" />
    </tlLogic>
    <tlLogic id="1069365606" offset="0" programID="1" type="static">
        <phase duration="52" state="GGggrrrrGGggrrrr" />
        <phase duration="5" state="yyggrrrryyggrrrr" />
        <phase duration="50" state="rrGGrrrrrrGGrrrr" />
        <phase duration="5" state="rryyrrrrrryyrrrr" />
        <phase duration="26" state="rrrrGGggrrrrGGgg" />
        <phase duration="5" state="rrrryyggrrrryygg" />
        <phase duration="54" state="rrrrrrGGrrrrrrGG" />
        <phase duration="5" state="rrrrrryyrrrrrryy" /> 
    </tlLogic>
    <tlLogic id="1069365670" offset="0" programID="1" type="static">
        <phase duration="6" state="GgrrGg" />
        <phase duration="5" state="yyrryy" />
        <phase duration="12" state="rrGGrr" />
        <phase duration="5" state="rryyrr" />
    </tlLogic>
    <tlLogic id="1093480689" offset="0" programID="1" type="static">
        <phase duration="22" state="GggGGgrrr" />
        <phase duration="5" state="yggyygrrr" />
        <phase duration="53" state="rGGrrGrrr" />
        <phase duration="5" state="ryyrryrrr" />
        <phase duration="21" state="rrrrrrGGG" />
        <phase duration="5" state="rrrrrryyy" />
    </tlLogic>
    <tlLogic id="1274128455" offset="0" programID="1" type="static">
        <phase duration="4" state="GgGg" />
        <phase duration="5" state="yyyy" />
    </tlLogic>
    <tlLogic id="2145146069" offset="0" programID="1" type="static">
        <phase duration="34" state="GGgrrrGgg" />
        <phase duration="5" state="yygrrrygg" />
        <phase duration="47" state="rrGrrrrGG" />
        <phase duration="5" state="rryrrrryy" />
        <phase duration="8" state="rrrGGGrrr" />
        <phase duration="5" state="rrryyyrrr" />
    </tlLogic>
    <tlLogic id="2177917497" offset="0" programID="1" type="static">
        <phase duration="43" state="G" />
        <phase duration="5" state="y" />
    </tlLogic>
    <tlLogic id="2224196809" offset="0" programID="1" type="static">
        <phase duration="36" state="G" />
        <phase duration="5" state="y" />
    </tlLogic>
    <tlLogic id="2306420285" offset="0" programID="1" type="static">
        <phase duration="59" state="GggrrrGGg" />
        <phase duration="5" state="yggrrryyg" />
        <phase duration="37" state="rGGrrrrrG" />
        <phase duration="5" state="ryyrrrrry" />
        <phase duration="48" state="rrrGGgGrr" />
        <phase duration="5" state="rrryyyyrr" />
    </tlLogic>
    <tlLogic id="2408412534" offset="0" programID="1" type="static">
        <phase duration="33" state="rrrrGGggrrrrGGgg" />
        <phase duration="5" state="rrrryyggrrrryygg" />
        <phase duration="40" state="rrrrrrGGrrrrrrGG" />
        <phase duration="5" state="rrrrrryyrrrrrryy" />
        <phase duration="27" state="GGggrrrrGGggrrrr" />
        <phase duration="5" state="yyggrrrryyggrrrr" />
        <phase duration="50" state="rrGGrrrrrrGGrrrr" />
        <phase duration="5" state="rryyrrrrrryyrrrr" />
    </tlLogic>
    <tlLogic id="2408412536" offset="0" programID="1" type="static">
        <phase duration="4" state="GGrr" />
        <phase duration="5" state="yyrr" />
        <phase duration="60" state="rrGG" />
        <phase duration="5" state="rryy" />
    </tlLogic>
    <tlLogic id="2408497626" offset="0" programID="1" type="static">
        <phase duration="4" state="rrrrGGggrrrrGGgg" />
        <phase duration="5" state="rrrryyggrrrryygg" />
        <phase duration="4" state="rrrrrrGGrrrrrrGG" />
        <phase duration="5" state="rrrrrryyrrrrrryy" />
        <phase duration="31" state="GGggrrrrGGggrrrr" />
        <phase duration="5" state="yyggrrrryyggrrrr" />
        <phase duration="22" state="rrGGrrrrrrGGrrrr" />
        <phase duration="5" state="rryyrrrrrryyrrrr" /> 
    </tlLogic>
    <tlLogic id="2536001831" offset="0" programID="1" type="static">
        <phase duration="54" state="rrrrGGggrrrrGGgg" />
        <phase duration="5" state="rrrryyggrrrryygg" />
        <phase duration="10" state="rrrrrrGGrrrrrrGG" />
        <phase duration="5" state="rrrrrryyrrrrrryy" />
        <phase duration="15" state="GGggrrrrGGggrrrr" />
        <phase duration="5" state="yyggrrrryyggrrrr" />
        <phase duration="25" state="rrGGrrrrrrGGrrrr" />
        <phase duration="5" state="rryyrrrrrryyrrrr" />
    </tlLogic>
    <tlLogic id="2536001834" offset="0" programID="1" type="static">
        <phase duration="10" state="GGggrrrrGGggrrrr" />
        <phase duration="5" state="yyggrrrryyggrrrr" />
        <phase duration="5" state="rrGGrrrrrrGGrrrr" />
        <phase duration="5" state="rryyrrrrrryyrrrr" />
        <phase duration="10" state="rrrrGGggrrrrGGgg" />
        <phase duration="5" state="rrrryyggrrrryygg" />
        <phase duration="13" state="rrrrrrGGrrrrrrGG" />
        <phase duration="5" state="rrrrrryyrrrrrryy" />
    </tlLogic>
    <tlLogic id="254531033" offset="0" programID="1" type="static">
        <phase duration="26" state="rrrrGGggrrrrGGgg" />
        <phase duration="5" state="rrrryyggrrrryygg" />
        <phase duration="21" state="rrrrrrGGrrrrrrGG" />
        <phase duration="5" state="rrrrrryyrrrrrryy" />
        <phase duration="58" state="GGggrrrrGGggrrrr" />
        <phase duration="5" state="yyggrrrryyggrrrr" />
        <phase duration="9" state="rrGGrrrrrrGGrrrr" />
        <phase duration="5" state="rryyrrrrrryyrrrr" />
    </tlLogic>
    <tlLogic id="254581852" offset="0" programID="1" type="static">
        <phase duration="35" state="rrrrGGggrrrrGGgg" />
        <phase duration="5" state="rrrryyggrrrryygg" />
        <phase duration="8" state="rrrrrrGGrrrrrrGG" />
        <phase duration="5" state="rrrrrryyrrrrrryy" />
        <phase duration="53" state="GGggrrrrGGggrrrr" />
        <phase duration="5" state="yyggrrrryyggrrrr" />
        <phase duration="31" state="rrGGrrrrrrGGrrrr" />
        <phase duration="5" state="rryyrrrrrryyrrrr" />
    </tlLogic>
    <tlLogic id="254581854" offset="0" programID="1" type="static">
        <phase duration="6" state="GGgrrrrrGgg" />
        <phase duration="5" state="yygrrrrrygg" />
        <phase duration="9" state="rrGrrrrrrGG" />
        <phase duration="5" state="rryrrrrrryy" />
        <phase duration="23" state="rrrGGGGGrrr" />
        <phase duration="5" state="rrryyyyyrrr" />
    </tlLogic>
    <tlLogic id="254581855" offset="0" programID="1" type="static">
        <phase duration="58" state="rrrrGGggg" />
        <phase duration="5" state="rrrryyggg" />
        <phase duration="22" state="rrrrrrGGG" />
        <phase duration="5" state="rrrrrryyy" />
        <phase duration="31" state="GGGGrrrrr" />
        <phase duration="5" state="yyyyrrrrr" />
    </tlLogic>
    <tlLogic id="254585719" offset="0" programID="1" type="static">
        <phase duration="14" state="GGgrrrrrGgg" />
        <phase duration="5" state="yygrrrrrygg" />
        <phase duration="63" state="rrGrrrrrrGG" />
        <phase duration="5" state="rryrrrrrryy" />
        <phase duration="30" state="rrrGGGGGrrr" />
        <phase duration="5" state="rrryyyyyrrr" /> 
    </tlLogic>
    <tlLogic id="255026270" offset="0" programID="1" type="static">
        <phase duration="29" state="GGggrrrrGGggrrrr" />
        <phase duration="5" state="yyggrrrryyggrrrr" />
        <phase duration="27" state="rrGGrrrrrrGGrrrr" />
        <phase duration="5" state="rryyrrrrrryyrrrr" />
        <phase duration="55" state="rrrrGGggrrrrGGgg" />
        <phase duration="5" state="rrrryyggrrrryygg" />
        <phase duration="35" state="rrrrrrGGrrrrrrGG" />
        <phase duration="5" state="rrrrrryyrrrrrryy" />
    </tlLogic>
    <tlLogic id="255376591" offset="0" programID="1" type="static">
        <phase duration="41" state="GgGr" />
        <phase duration="5" state="yyyr" />
        <phase duration="56" state="GrGg" />
        <phase duration="5" state="yryy" />
    </tlLogic>
    <tlLogic id="255378181" offset="0" programID="1" type="static">
        <phase duration="20" state="rrrGGgGgg" />
        <phase duration="5" state="rrryygygg" />
        <phase duration="20" state="rrrrrGrGG" />
        <phase duration="5" state="rrrrryryy" />
        <phase duration="53" state="GGgGrrrrr" />
        <phase duration="5" state="yyyyrrrrr" />
    </tlLogic>
    <tlLogic id="255378183" offset="0" programID="1" type="static">
        <phase duration="43" state="GggrrrGGg" />
        <phase duration="5" state="yggrrryyg" />
        <phase duration="48" state="rGGrrrrrG" />
        <phase duration="5" state="ryyrrrrry" />
        <phase duration="31" state="rrrGGgGrr" />
        <phase duration="5" state="rrryyyyrr" />
    </tlLogic>
    <tlLogic id="256115979" offset="0" programID="1" type="static">
        <phase duration="30" state="GgGg" />
        <phase duration="5" state="yyyy" />
    </tlLogic>
    <tlLogic id="256456400" offset="0" programID="1" type="static">
        <phase duration="26" state="GggGGgrrrr" />
        <phase duration="5" state="yggyygrrrr" />
        <phase duration="14" state="rGGrrGrrrr" />
        <phase duration="5" state="ryyrryrrrr" />
        <phase duration="57" state="rrrrrrGGGG" />
        <phase duration="5" state="rrrrrryyyy" />
    </tlLogic>
    <tlLogic id="256456406" offset="0" programID="1" type="static">
        <phase duration="16" state="rrrrGGggrrrrGGgg" />
        <phase duration="5" state="rrrryyggrrrryygg" />
        <phase duration="10" state="rrrrrrGGrrrrrrGG" />
        <phase duration="5" state="rrrrrryyrrrrrryy" />
        <phase duration="60" state="GGggrrrrGGggrrrr" />
        <phase duration="5" state="yyggrrrryyggrrrr" />
        <phase duration="24" state="rrGGrrrrrrGGrrrr" />
        <phase duration="5" state="rryyrrrrrryyrrrr" />
    </tlLogic>
    <tlLogic id="256456715" offset="0" programID="1" type="static">
        <phase duration="52" state="GgGr" />
        <phase duration="5" state="yyyr" />
        <phase duration="36" state="GrGg" />
        <phase duration="5" state="yryy" />
    </tlLogic>
    <tlLogic id="256456773" offset="0" programID="1" type="static">
        <phase duration="17" state="GGggrrrrGGggrrrr" />
        <phase duration="5" state="yyggrrrryyggrrrr" />
        <phase duration="15" state="rrGGrrrrrrGGrrrr" />
        <phase duration="5" state="rryyrrrrrryyrrrr" />
        <phase duration="10" state="rrrrGGggrrrrGGgg" />
        <phase duration="5" state="rrrryyggrrrryygg" />
        <phase duration="24" state="rrrrrrGGrrrrrrGG" />
        <phase duration="5" state="rrrrrryyrrrrrryy" />   
    </tlLogic>
    <tlLogic id="256725847" offset="0" programID="1" type="static">
        <phase duration="56" state="GGgrrrrrGgg" />
        <phase duration="5" state="yygrrrrrygg" />
        <phase duration="4" state="rrGrrrrrrGG" />
        <phase duration="5" state="rryrrrrrryy" />
        <phase duration="4" state="rrrGGGGGrrr" />
        <phase duration="5" state="rrryyyyyrrr" />
    </tlLogic>
    <tlLogic id="257929386" offset="0" programID="1" type="static">
        <phase duration="11" state="GGggrrrrGGgg" />
        <phase duration="5" state="yyggrrrryygg" />
        <phase duration="26" state="rrGGrrrrrrGG" />
        <phase duration="5" state="rryyrrrrrryy" />
        <phase duration="44" state="rrrrGGGgGrrr" />
        <phase duration="5" state="rrrryyyyyrrr" />
    </tlLogic>
    <tlLogic id="258772629" offset="0" programID="1" type="static">
        <phase duration="62" state="rrrrGGggrrrrGGgg" />
        <phase duration="5" state="rrrryyggrrrryygg" />
        <phase duration="23" state="rrrrrrGGrrrrrrGG" />
        <phase duration="5" state="rrrrrryyrrrrrryy" />
        <phase duration="20" state="GGggrrrrGGggrrrr" />
        <phase duration="5" state="yyggrrrryyggrrrr" />
        <phase duration="60" state="rrGGrrrrrrGGrrrr" />
        <phase duration="5" state="rryyrrrrrryyrrrr" />
    </tlLogic>
    <tlLogic id="258772630" offset="0" programID="1" type="static">
        <phase duration="38" state="GggGGgrrrr" />
        <phase duration="5" state="yggyygrrrr" />
        <phase duration="56" state="rGGrrGrrrr" />
        <phase duration="5" state="ryyrryrrrr" />
        <phase duration="56" state="rrrrrrGGGG" />
        <phase duration="5" state="rrrrrryyyy" />
    </tlLogic>
    <tlLogic id="258845414" offset="0" programID="1" type="static">
        <phase duration="30" state="GGGGrrr" />
        <phase duration="5" state="yyyyrrr" />
        <phase duration="38" state="rrrrGGG" />
        <phase duration="5" state="rrrryyy" />
    </tlLogic>
    <tlLogic id="259974875" offset="0" programID="1" type="static">
        <phase duration="38" state="GGrrr" />
        <phase duration="5" state="yyrrr" />
        <phase duration="56" state="rrGGG" />
        <phase duration="5" state="rryyy" />
    </tlLogic>
    <tlLogic id="259974960" offset="0" programID="1" type="static">
        <phase duration="23" state="rrrrGGggrrrrGGgg" />
        <phase duration="5" state="rrrryyggrrrryygg" />
        <phase duration="21" state="rrrrrrGGrrrrrrGG" />
        <phase duration="5" state="rrrrrryyrrrrrryy" />
        <phase duration="13" state="GGggrrrrGGggrrrr" />
        <phase duration="5" state="yyggrrrryyggrrrr" />
        <phase duration="9" state="rrGGrrrrrrGGrrrr" />
        <phase duration="5" state="rryyrrrrrryyrrrr" />
    </tlLogic>
    <tlLogic id="259975052" offset="0" programID="1" type="static">
        <phase duration="53" state="GGggrrrrGGggrrrr" />
        <phase duration="5" state="yyggrrrryyggrrrr" />
        <phase duration="53" state="rrGGrrrrrrGGrrrr" />
        <phase duration="5" state="rryyrrrrrryyrrrr" />
        <phase duration="25" state="rrrrGGggrrrrGGgg" />
        <phase duration="5" state="rrrryyggrrrryygg" />
        <phase duration="18" state="rrrrrrGGrrrrrrGG" />
        <phase duration="5" state="rrrrrryyrrrrrryy" />  
    </tlLogic>
    <tlLogic id="259975053" offset="0" programID="1" type="static">
        <phase duration="22" state="GgGg" />
        <phase duration="5" state="yyyy" />
    </tlLogic>
    <tlLogic id="259987575" offset="0" programID="1" type="static">
        <phase duration="10" state="rrrrGGggrrrrGGgg" />
        <phase duration="5" state="rrrryyggrrrryygg" />
        <phase duration="62" state="rrrrrrGGrrrrrrGG" />
        <phase duration="5" state="rrrrrryyrrrrrryy" />
        <phase duration="10" state="GGggrrrrGGggrrrr" />
        <phase duration="5" state="yyggrrrryyggrrrr" />
        <phase duration="47" state="rrGGrrrrrrGGrrrr" />
        <phase duration="5" state="rryyrrrrrryyrrrr" />
    </tlLogic>
    <tlLogic id="260281837" offset="0" programID="1" type="static">
        <phase duration="58" state="GGgrrrrrGgg" />
        <phase duration="5" state="yygrrrrrygg" />
        <phase duration="7" state="rrGrrrrrrGG" />
        <phase duration="5" state="rryrrrrrryy" />
        <phase duration="21" state="rrrGGGGGrrr" />
        <phase duration="5" state="rrryyyyyrrr" />
    </tlLogic>
    <tlLogic id="261601075" offset="0" programID="1" type="static">
        <phase duration="48" state="G" />
        <phase duration="5" state="y" />
    </tlLogic>
    <tlLogic id="261601090" offset="0" programID="1" type="static">
        <phase duration="12" state="GGggrrrrGGggrrrr" />
        <phase duration="5" state="yyggrrrryyggrrrr" />
        <phase duration="53" state="rrGGrrrrrrGGrrrr" />
        <phase duration="5" state="rryyrrrrrryyrrrr" />
        <phase duration="18" state="rrrrGGggrrrrGGgg" />
        <phase duration="5" state="rrrryyggrrrryygg" />
        <phase duration="63" state="rrrrrrGGrrrrrrGG" />
        <phase duration="5" state="rrrrrryyrrrrrryy" />
    </tlLogic>
    <tlLogic id="262996119" offset="0" programID="1" type="static">
        <phase duration="28" state="GggGGgrrr" />
        <phase duration="5" state="yggyygrrr" />
        <phase duration="16" state="rGGrrGrrr" />
        <phase duration="5" state="ryyrryrrr" />
        <phase duration="15" state="rrrrrrGGG" />
        <phase duration="5" state="rrrrrryyy" />
    </tlLogic>
    <tlLogic id="265599709" offset="0" programID="1" type="static">
        <phase duration="5" state="rrrrGGggrrrrGGgg" />
        <phase duration="5" state="rrrryyggrrrryygg" />
        <phase duration="25" state="rrrrrrGGrrrrrrGG" />
        <phase duration="5" state="rrrrrryyrrrrrryy" />
        <phase duration="17" state="GGggrrrrGGggrrrr" />
        <phase duration="5" state="yyggrrrryyggrrrr" />
        <phase duration="29" state="rrGGrrrrrrGGrrrr" />
        <phase duration="5" state="rryyrrrrrryyrrrr" />
    </tlLogic>
    <tlLogic id="265599714" offset="0" programID="1" type="static">
        <phase duration="45" state="GGggrrrrGGggrrrr" />
        <phase duration="5" state="yyggrrrryyggrrrr" />
        <phase duration="61" state="rrGGrrrrrrGGrrrr" />
        <phase duration="5" state="rryyrrrrrryyrrrr" />
        <phase duration="27" state="rrrrGGggrrrrGGgg" />
        <phase duration="5" state="rrrryyggrrrryygg" />
        <phase duration="63" state="rrrrrrGGrrrrrrGG" />
        <phase duration="5" state="rrrrrryyrrrrrryy" /> 
    </tlLogic>
    <tlLogic id="2708360447" offset="0" programID="1" type="static">
        <phase duration="15" state="G" />
        <phase duration="5" state="y" />
    </tlLogic>
    <tlLogic id="271829728" offset="0" programID="1" type="static">
        <phase duration="34" state="GgGr" />
        <phase duration="5" state="yyyr" />
        <phase duration="13" state="GrGg" />
        <phase duration="5" state="yryy" />
    </tlLogic>
    <tlLogic id="271829737" offset="0" programID="1" type="static">
        <phase duration="46" state="rrrrGGggrrrrGGgg" />
        <phase duration="5" state="rrrryyggrrrryygg" />
        <phase duration="9" state="rrrrrrGGrrrrrrGG" />
        <phase duration="5" state="rrrrrryyrrrrrryy" />
        <phase duration="24" state="GGggrrrrGGggrrrr" />
        <phase duration="5" state="yyggrrrryyggrrrr" />
        <phase duration="9" state="rrGGrrrrrrGGrrrr" />
        <phase duration="5" state="rryyrrrrrryyrrrr" />
    </tlLogic>
    <tlLogic id="2753105676" offset="0" programID="1" type="static">
        <phase duration="28" state="GGG" />
        <phase duration="5" state="yyy" />
    </tlLogic>
    <tlLogic id="2753105680" offset="0" programID="1" type="static">
        <phase duration="31" state="GggGGgrrr" />
        <phase duration="5" state="yggyygrrr" />
        <phase duration="32" state="rGGrrGrrr" />
        <phase duration="5" state="ryyrryrrr" />
        <phase duration="28" state="rrrrrrGGG" />
        <phase duration="5" state="rrrrrryyy" />
    </tlLogic>
    <tlLogic id="2753105681" offset="0" programID="1" type="static">
        <phase duration="62" state="GggGGgrrr" />
        <phase duration="5" state="yggyygrrr" />
        <phase duration="4" state="rGGrrGrrr" />
        <phase duration="5" state="ryyrryrrr" />
        <phase duration="49" state="rrrrrrGGG" />
        <phase duration="5" state="rrrrrryyy" />
    </tlLogic>
    <tlLogic id="2753105682" offset="0" programID="1" type="static">
        <phase duration="34" state="rrrGggGGg" />
        <phase duration="5" state="rrryggyyg" />
        <phase duration="43" state="rrrrGGrrG" />
        <phase duration="5" state="rrrryyrry" />
        <phase duration="30" state="GGGrrrrrr" />
        <phase duration="5" state="yyyrrrrrr" />
    </tlLogic>
    <tlLogic id="2753105686" offset="0" programID="1" type="static">
        <phase duration="4" state="GGgrrrGgg" />
        <phase duration="5" state="yygrrrygg" />
        <phase duration="17" state="rrGrrrrGG" />
        <phase duration="5" state="rryrrrryy" />
        <phase duration="31" state="rrrGGGrrr" />
        <phase duration="5" state="rrryyyrrr" />
    </tlLogic>
    <tlLogic id="2753105687" offset="0" programID="1" type="static">
        <phase duration="33" state="GGGGrrr" />
        <phase duration="5" state="yyyyrrr" />
        <phase duration="50" state="rrrrGGG" />
        <phase duration="5" state="rrrryyy" />
    </tlLogic>
    <tlLogic id="276377337" offset="0" programID="1" type="static">
        <phase duration="35" state="GGggrrrrGGggrrrr" />
        <phase duration="5" state="yyggrrrryyggrrrr" />
        <phase duration="56" state="rrGGrrrrrrGGrrrr" />
        <phase duration="5" state="rryyrrrrrryyrrrr" />
        <phase duration="60" state="rrrrGGggrrrrGGgg" />
        <phase duration="5" state="rrrryyggrrrryygg" />
        <phase duration="5" state="rrrrrrGGrrrrrrGG" />
        <phase duration="5" state="rrrrrryyrrrrrryy" /> 
    </tlLogic>
    <tlLogic id="276452387" offset="0" programID="1" type="static">
        <phase duration="21" state="GGGrr" />
        <phase duration="5" state="yyyrr" />
        <phase duration="27" state="rrrGG" />
        <phase duration="5" state="rrryy" />
    </tlLogic>
    <tlLogic id="278701744" offset="0" programID="1" type="static">
        <phase duration="58" state="GGgGggrrr" />
        <phase duration="5" state="yygyggrrr" />
        <phase duration="39" state="rrGrGGrrr" />
        <phase duration="5" state="rryryyrrr" />
        <phase duration="44" state="GrrrrrGGg" />
        <phase duration="5" state="yrrrrryyy" />
    </tlLogic>
    <tlLogic id="278701745" offset="0" programID="1" type="static">
        <phase duration="40" state="rrrrGGggrrrrGGgg" />
        <phase duration="5" state="rrrryyggrrrryygg" />
        <phase duration="10" state="rrrrrrGGrrrrrrGG" />
        <phase duration="5" state="rrrrrryyrrrrrryy" />
        <phase duration="35" state="GGggrrrrGGggrrrr" />
        <phase duration="5" state="yyggrrrryyggrrrr" />
        <phase duration="16" state="rrGGrrrrrrGGrrrr" />
        <phase duration="5" state="rryyrrrrrryyrrrr" />
    </tlLogic>
    <tlLogic id="278701746" offset="0" programID="1" type="static">
        <phase duration="40" state="GGggrrrrGGggrrrr" />
        <phase duration="5" state="yyggrrrryyggrrrr" />
        <phase duration="29" state="rrGGrrrrrrGGrrrr" />
        <phase duration="5" state="rryyrrrrrryyrrrr" />
        <phase duration="46" state="rrrrGGggrrrrGGgg" />
        <phase duration="5" state="rrrryyggrrrryygg" />
        <phase duration="21" state="rrrrrrGGrrrrrrGG" />
        <phase duration="5" state="rrrrrryyrrrrrryy" />
    </tlLogic>
    <tlLogic id="278701747" offset="0" programID="1" type="static">
        <phase duration="60" state="GGgrrrrrGgg" />
        <phase duration="5" state="yygrrrrrygg" />
        <phase duration="20" state="rrGrrrrrrGG" />
        <phase duration="5" state="rryrrrrrryy" />
        <phase duration="39" state="rrrGGGGGrrr" />
        <phase duration="5" state="rrryyyyyrrr" />
    </tlLogic>
    <tlLogic id="278701748" offset="0" programID="1" type="static">
        <phase duration="6" state="GGggrrrrGGggrrrr" />
        <phase duration="5" state="yyggrrrryyggrrrr" />
        <phase duration="26" state="rrGGrrrrrrGGrrrr" />
        <phase duration="5" state="rryyrrrrrryyrrrr" />
        <phase duration="34" state="rrrrGGggrrrrGGgg" />
        <phase duration="5" state="rrrryyggrrrryygg" />
        <phase duration="28" state="rrrrrrGGrrrrrrGG" />
        <phase duration="5" state="rrrrrryyrrrrrryy" />
    </tlLogic>
    <tlLogic id="278942780" offset="0" programID="1" type="static">
        <phase duration="46" state="GggGGgrrr" />
        <phase duration="5" state="yggyygrrr" />
        <phase duration="12" state="rGGrrGrrr" />
        <phase duration="5" state="ryyrryrrr" />
        <phase duration="25" state="rrrrrrGGG" />
        <phase duration="5" state="rrrrrryyy" />
    </tlLogic>
    <tlLogic id="278942791" offset="0" programID="1" type="static">