<routes xmlns:xsi="http://www.w3.org/2001/XMLSchema-instance" xsi:noNamespaceSchemaLocation="http://sumo.dlr.de/xsd/routes_file.xsd">
    <vType id="passenger" maxSpeed="50.00" vClass="passenger" />
    <vehicle depart="0.20" departLane="best" id="0" type="passenger">
        <route edges="358055176#1 358055195 23162032#9 190525294#0 190525294#1 190525294#2 190525294#3 190525294#4 190525294#5 367453371 34474997#0 34474997#1 34475191#0" />
    </vehicle>
    <vehicle depart="0.40" departLane="best" id="1" type="passenger">
        <route edges="511066443#0 511066443#1 511066490 357424594#0 357424594#1 357424594#2 190816349#0 190816349#1 190816349#2 190816349#3 190816349#4 35901833#0 35901833#1 35901833#2 35901833#3 35901833#4 -255925785#2 -255925785#1" />
    </vehicle>
    <vehicle depart="0.60" departLane="best" id="2" type="passenger">
        <route edges="23051255#2 23162032#0 23162032#1 23162032#2 23162032#3 23162032#4 23162032#5 23162032#6 23162032#7 23162032#8 23162032#9 190525294#0 190525294#1 190525294#2 190525294#3 190525294#4 190525294#5 367453371 34474997#0 34474997#1 34474997#2 34474997#3 34474997#4 34474997#5 34474997#6 34474997#7 34474997#8 34474997#9 448479840#0 448479840#1 448479840#2" />
    </vehicle>
    <vehicle depart="1.00" departLane="best" id="3" type="passenger">
        <route edges="190525294#1 190525294#2 190525294#3 190525294#4 190525294#5 367453371 34474997#0 34474997#1 34474997#2 34474997#3 34474997#4 34474997#5 34474997#6 34474997#7 34474997#8 34474997#9 448479840#0" />
    </vehicle>
    <vehicle depart="1.80" departLane="best" id="4" type="passenger">
        <route edges="190816349#2 190816349#3 190816349#4 35901833#0 35901833#1 146546027#0 146546027#1 23162040#2 23162040#3 23161464#0" />
    </vehicle>
    <vehicle depart="2.00" departLane="best" id="5" type="passenger">
        <route edges="27131168#2 190816355 61279128#0 61279128#1" />
    </vehicle>
    <vehicle depart="2.40" departLane="best" id="6" type="passenger">
        <route edges="190794129#2 190794129#3 190794129#4 190794129#5 -357575329 357575329 -358055173 -255925785#2 -255925785#1 -255925785#0 23162032#0" />
    </vehicle>
    <vehicle depart="2.60" departLane="best" id="7" type="passenger">
        <route edges="190525294#1 190525294#2 190525294#3 190525294#4 190525294#5 367453371 34474997#0 34474997#1 34475191#0 34475191#1 34475191#2 34475191#3 34475191#4 35902033#0 35902033#1" />
    </vehicle>
    <vehicle depart="2.80" departLane="best" id="8" type="passenger">
        <route edges="34474997#1 34474997#2 34474997#3 34474997#4 34474997#5 34474997#6 34474997#7 34474997#8 34474997#9 35901888#0 35901888#1 35773427#2" />
    </vehicle>
    <vehicle depart="3.60" departLane="best" id="9" type="passenger">
        <route edges="448479840#2 511066491 358055149 511066518#0 511066518#1 358089846 511066434 511066443#0 511066443#1 511066490 357424594#0 357424594#1 357424594#2 190816349#0 190816349#1 190816349#2 190816349#3 190816349#4 35901833#0 35901833#1 35901833#2 35901833#3 35901833#4 -255925785#2 -255925785#1 -255925785#0 23162032#0 23162032#1 23162032#2 23162032#3 23162032#4 23162032#5 23162032#6 23162032#7 23162032#8 23162032#9 190525294#0 190525294#1 190525294#2 190525294#3 190525294#4 190525294#5 367453371 34474997#0 34474997#1 34475191#0 34475191#1 34475191#2 34475191#3 34475191#4 349851315 349851317#0" />
    </vehicle>
    <vehicle depart="4.20" departLane="best" id="10" type="passenger">
        <route edges="35902125#2 35902033#2 35902033#3 34474997#6 34474997#7 34474997#8 34474997#9 448479840#0 448479840#1 448479840#2 511066491 358055149 511066518#0 511066518#1 358089846 511066434 511066443#0 511066443#1 511066490 357424594#0 357424594#1 357424594#2" />
    </vehicle>
    <vehicle depart="4.60" departLane="best" id="11" type="passenger">
        <route edges="-349851317#1 -349851317#0 30098185#5 27617819#2 27617819#3 27617819#4 27617819#5 35902564#0 35902564#1 35902564#2 35773427#1 35773427#2 35773427#3 35773427#4 35902033#3 34474997#6 34474997#7" />
    </vehicle>
    <vehicle depart="4.80" departLane="best" id="12" type="passenger">
        <route edges="358195673 -359227314#1 -359227314#0 511066490 357424594#0 357424594#1 357424594#2 190816349#0 190816349#1 190816349#2 190816349#3 190816349#4 35901833#0 35901833#1 35901833#2 35901833#3 35901833#4 -255925785#2 -255925785#1 -255925785#0 23162032#0 23162032#1 23162032#2 23162032#3 23162032#4 23162032#5 23162032#6 23162032#7 23162032#8 23162032#9 190525294#0 190525294#1 190525294#2 190525294#3 190525294#4 190525294#5 367453371 34474997#0 34474997#1 34474997#2 34474997#3 34474997#4 34474997#5 34474997#6 34474997#7 34474997#8" />
    </vehicle>
    <vehicle depart="5.20" departLane="best" id="13" type="passenger">
        <route edges="190525294#3 190525294#4 190525294#5 367453371 34474997#0 34474997#1 34474997#2 34474997#3 34474997#4 34474997#5 34474997#6 34474997#7 34474997#8 34474997#9 448479840#0 448479840#1 448479840#2 511066491 358055149" />
    </vehicle>
    <vehicle depart="5.80" departLane="best" id="14" type="passenger">
        <route edges="34474997#6 34474997#7 34474997#8 34474997#9 448479840#0 448479840#1 448479840#2 511066491 358055149 511066518#0 511066518#1 358089846 511066434 511066443#0 511066443#1 359227314#0 359227314#1 72456715#0 72456715#1 277000208#0 277000208#1" />
    </vehicle>
    <vehicle depart="6.40" departLane="best" id="15" type="passenger">
        <route edges="349851320#0 349851320#1 34474997#3 34474997#4 34474997#5 34474997#6 34474997#7 34474997#8 34474997#9 448479840#0 448479840#1 448479840#2 511066491 358055149 511066518#0 511066518#1 358089846 511066434 511066443#0 511066443#1 511066490 357424594#0 357424594#1 357424594#2 190816349#0 190816349#1 190816349#2 190816349#3 190816349#4 35901833#0 35901833#1 35901833#2 35901833#3 35901833#4 358055173 -357575329 357575329 23162040#0" />
    </vehicle>
    <vehicle depart="7.60" departLane="best" id="16" type="passenger">
        <route edges="34474997#3 34474997#4 34474997#5 34474997#6 34474997#7 34474997#8 34474997#9 448479840#0 448479840#1 448479840#2 511066491 358055149 511066518#0 511066518#1 358089846 511066434 511066443#0 511066443#1 511066490 357424594#0 357424594#1 357424594#2 190816349#0 190816349#1 190816349#2 190816349#3 190816349#4 35901833#0 35901833#1 35901833#2 35901833#3 35901833#4 -255925785#2 -255925785#1 -255925785#0 23162032#0 23162032#1 23162032#2 23162032#3 23162032#4 23162032#5 23162032#6 23162032#7 23162032#8 23162032#9 190525294#0 190525294#1" />
    </vehicle>
    <vehicle depart="8.40" departLane="best" id="17" type="passenger">
        <route edges="35901833#2 35901833#3 35901833#4 -255925785#2 -255925785#1" />
    </vehicle>
    <vehicle depart="8.60" departLane="best" id="18" type="passenger">
        <route edges="357424594#0 357424594#1 357424594#2 190816349#0 190816349#1 190816349#2 190816349#3 190816349#4 35901833#0 35901833#1 35901833#2 35901833#3 35901833#4 -255925785#2 -255925785#1 -255925785#0 23162032#0 23162032#1 23162032#2 23162032#3 23162032#4 23162032#5 23162032#6 23162032#7 23162032#8 23162032#9 190525294#0 190525294#1 190525294#2 190525294#3 190525294#4 190525294#5" />
    </vehicle>
    <vehicle depart="9.00" departLane="best" id="19" type="passenger">
        <route edges="-359227314#1 -359227314#0 511066490 357424594#0 357424594#1 357424594#2 190816349#0 190816349#1 190816349#2 190816349#3 190816349#4 35901833#0 35901833#1 35901833#2 35901833#3 35901833#4 -255925785#2 -255925785#1 -255925785#0 23162032#0 23162032#1 23162032#2 23162032#3 23162032#4 23162032#5 23162032#6 23162032#7 23162032#8 23162032#9 190525294#0 190525294#1 190525294#2 190525294#3 190525294#4 190525294#5 367453371 34474997#0 34474997#1 34474997#2 34474997#3 34474997#4 34474997#5 34474997#6 34474997#7 34474997#8 34474997#9 35901888#0 35901888#1 35901888#2" />
    </vehicle>
    <vehicle depart="9.40" departLane="best" id="20" type="passenger">
        <route edges="35773427#5 349851320#1 34474997#3 34474997#4 34474997#5 34474997#6 34474997#7 34474997#8 34474997#9 448479840#0 448479840#1 448479840#2 511066491 358055149 511066518#0 511066518#1 358089846 511066434 511066443#0 511066443#1 511066490 357424594#0 357424594#1 357424594#2 190816349#0 190816349#1 190816349#2 190816349#3 190816349#4 35901833#0 35901833#1 146546027#0 146546027#1 23162040#2 23162040#3 190426957#0 190426957#1 190426957#2 190426957#3" />
    </vehicle>
    <vehicle depart="10.00" departLane="best" id="21" type="passenger">
        <route edges="146546027#0 146546027#1 23162040#2 23162040#3 23161464#0 23161464#1 511066483 511066470 146544718 358195673 -359227314#1 -359227314#0 511066490 357424594#0 357424594#1 357424594#2 190816349#0 190816349#1 190816349#2 190816349#3 190816349#4 35901833#0 35901833#1 35901833#2 35901833#3 35901833#4 -255925785#2 -255925785#1 -255925785#0 23162032#0 23162032#1 23162032#2 23162032#3 23162032#4 23162032#5 23162032#6 23162032#7 402281056 27617819#1 27617819#2 27617819#3 27617819#4 27617819#5 35902564#0 35902564#1" />
    </vehicle>
    <vehicle depart="10.40" departLane="best" id="22" type="passenger">
        <route edges="23051255#0 23051255#1 23051255#2 255925785#0 -255925785#0" />
    </vehicle>
    <vehicle depart="10.60" departLane="best" id="23" type="passenger">
        <route edges="35901888#2 35901888#3 35901888#4 27617819#5 27617819#6 27617819#7 190816349#0 190816349#1 190816349#2 190816349#3 190816349#4 35901833#0 35901833#1 35901833#2" />
    </vehicle>
    <vehicle depart="11.00" departLane="best" id="24" type="passenger">
        <route edges="30098185#0 30098185#1 30098185#2 30098185#3 30098185#4 30098185#5 27617819#2 27617819#3 27617819#4 27617819#5 27617819#6 27617819#7 190816349#0 190816349#1 190816349#2 190816349#3 190816349#4 35901833#0 35901833#1 35901833#2 35901833#3 35901833#4 -255925785#2 -255925785#1 -255925785#0 255925785#0" />
    </vehicle>
    <vehicle depart="11.40" departLane="best" id="25" type="passenger">
        <route edges="-359227314#0 511066490 357424594#0 357424594#1 357424594#2 146196600#0 146196600#1 191454927#0 191454927#1" />
    </vehicle>
    <vehicle depart="11.60" departLane="best" id="26" type="passenger">
        <route edges="35773427#5 349851320#1 34474997#3 34474997#4 34474997#5 34474997#6 34474997#7 34474997#8 34474997#9 448479840#0 448479840#1 448479840#2 511066491 358055149 511066518#0 511066518#1 358089846 511066434 511066443#0 511066443#1 511066490 357424594#0 357424594#1 357424594#2 146196600#0 146196600#1 191454927#0 191454927#1 35903166#0 35903166#1 35903166#2 27131168#0 27131168#1 27131168#2 190816355 190816353" />
    </vehicle>
    <vehicle depart="12.00" departLane="best" id="27" type="passenger">
        <route edges="35773427#1 35773427#2 35773427#3 35773427#4 35773427#5 349851320#1 34474997#3 34474997#4 34474997#5" />
    </vehicle>
    <vehicle depart="12.40" departLane="best" id="28" type="passenger">
        <route edges="35773427#5 349851320#1 34474997#3 34474997#4 34474997#5 34474997#6 34474997#7 34474997#8 34474997#9 448479840#0 448479840#1 448479840#2 511066491 358055149 511066518#0 511066518#1 358089846 511066434 511066443#0 511066443#1 511066490 357424594#0 357424594#1 357424594#2 190816349#0 190816349#1 190816349#2 190816349#3 190816349#4 35901833#0 35901833#1 35901833#2 35901833#3 35901833#4 -255925785#2 -255925785#1 -255925785#0 255925785#0" />
    </vehicle>
    <vehicle depart="12.60" departLane="best" id="29" type="passenger">
        <route edges="-349851317#1 -349851317#0 30098185#5 27617819#2 27617819#3 27617819#4 27617819#5 35902564#0 35902564#1 35902564#2 35773427#1 35773427#2 35773427#3 35773427#4 35773427#5 349851320#1 34474997#3" />
    </vehicle>
    <vehicle depart="12.80" departLane="best" id="30" type="passenger">
        <route edges="358055176#1 358055195 27617819#0 27617819#1 27617819#2 27617819#3 27617819#4 27617819#5 27617819#6 27617819#7 146196600#0 146196600#1 191454927#0 191454927#1 35903166#0" />
    </vehicle>
    <vehicle depart="13.40" departLane="best" id="31" type="passenger">
        <route edges="190794129#2 190794129#3 190794129#4 190794129#5 -357575329 357575329 -358055173 -255925785#2 -255925785#1 -255925785#0 23162032#0 23162032#1 23162032#2 23162032#3 23162032#4 23162032#5 23162032#6 23162032#7 23162032#8" />
    </vehicle>
    <vehicle depart="13.60" departLane="best" id="32" type="passenger">
        <route edges="34474997#1 34474997#2 34474997#3 34474997#4 34474997#5 34474997#6 30098185#0" />
    </vehicle>
    <vehicle depart="13.80" departLane="best" id="33" type="passenger">
        <route edges="190525294#0 190525294#1 190525294#2 190525294#3 190525294#4 190525294#5 367453371 34474997#0 34474997#1 34474997#2 34474997#3 34474997#4 34474997#5 34474997#6 34474997#7 34474997#8 34474997#9 448479840#0 448479840#1 448479840#2 511066491 358055149" />
    </vehicle>
    <vehicle depart="14.60" departLane="best" id="34" type="passenger">
        <route edges="511066434 511066443#0 511066443#1 511066490 357424594#0 357424594#1 357424594#2 190816349#0 190816349#1 190816349#2 190816349#3 190816349#4 35901833#0 35901833#1 35901833#2 35901833#3 35901833#4 -255925785#2 -255925785#1 -255925785#0 23162032#0 23162032#1 23162032#2 23162032#3 23162032#4 23162032#5 23162032#6 23162032#7 23162032#8 23162032#9 190525294#0 190525294#1 190525294#2 190525294#3 190525294#4 190525294#5 367453371 34474997#0 34474997#1 34474997#2 34474997#3 34474997#4 34474997#5 34474997#6 34474997#7 34474997#8 34474997#9 448479840#0 448479840#1 429907987" />
    </vehicle>
    <vehicle depart="15.00" departLane="best" id="35" type="passenger">
        <route edges="-349851317#0 30098185#5 27617819#2 27617819#3 27617819#4 27617819#5 27617819#6 27617819#7 190816349#0 190816349#1 190816349#2 190816349#3 190816349#4 35901833#0 35901833#1 35901833#2 35901833#3 35901833#4 -255925785#2 -255925785#1" />
    </vehicle>
    <vehicle depart="15.60" departLane="best" id="36" type="passenger">
        <route edges="35901888#4 27617819#5 27617819#6 27617819#7 146196600#0 146196600#1 511066483 511066470 146544718 358195673 -359227314#1 -359227314#0 359227314#0" />
    </vehicle>
    <vehicle depart="16.20" departLane="best" id="37" type="passenger">
        <route edges="35773427#4 35902033#3 34474997#6 34474997#7 34474997#8 34474997#9 448479840#0 448479840#1 448479840#2 511066491 358055149 511066518#0 511066518#1 358089846 511066434 511066443#0 511066443#1 511066490 357424594#0 357424594#1 357424594#2 146196600#0 146196600#1 191454927#0 191454927#1 35903166#0 35903166#1 35903166#2 27131168#0 27131168#1 27131168#2 190816355 190816353 35903338 61335135#1 61335135#2 61335135#3" />
    </vehicle>
    <vehicle depart="16.60" departLane="best" id="38" type="passenger">
        <route edges="358055176#0 358055176#1 190525285#2 190525285#3 190525285#4 190525285#5 358055191#0 358055191#1 75503605#0" />
    </vehicle>
    <vehicle depart="16.80" departLane="best" id="39" type="passenger">
        <route edges="359227314#0 -359227314#0 511066490 357424594#0 357424594#1 357424594#2 190816349#0 190816349#1 190816349#2 190816349#3 190816349#4 35901833#0 35901833#1 35901833#2 35901833#3 35901833#4 -255925785#2 -255925785#1 -255925785#0 23162032#0 23162032#1 23162032#2 23162032#3 23162032#4 23162032#5 23162032#6 23162032#7 23162032#8 23162032#9 190525294#0 190525294#1 190525294#2 190525294#3 190525294#4 190525294#5 367453371 34474997#0 34474997#1 34474997#2 34474997#3 34474997#4 34474997#5 34474997#6 34474997#7 34474997#8 34474997#9 448479840#0 448479840#1 448479840#2 511066491 358055149 511066518#0" />
    </vehicle>
    <vehicle depart="17.40" departLane="best" id="40" type="passenger">
        <route edges="-358055173 -255925785#2 -255925785#1 -255925785#0 23162032#0 23162032#1 23162032#2 23162032#3 23162032#4 23162032#5 23162032#6 23162032#7 23162032#8 23162032#9 190525294#0 190525294#1 190525294#2 190525294#3 190525294#4 190525294#5 367453371 34474997#0 34474997#1 34474997#2 34474997#3 34474997#4 34474997#5 34474997#6 34474997#7 34474997#8 34474997#9 448479840#0 448479840#1 448479840#2 -497222988" />
    </vehicle>
    <vehicle depart="17.80" departLane="best" id="41" type="passenger">
        <route edges="511066518#1 358089846 511066434 511066443#0 511066443#1 511066490 357424594#0 357424594#1 357424594#2 146196600#0 146196600#1 191454927#0 191454927#1 35903166#0 35903166#1 35903166#2 27131168#0 27131168#1 27131168#2 190816355 190816353 35903338 61335135#1 61335135#2 61335135#3" />
    </vehicle>
    <vehicle depart="18.00" departLane="best" id="42" type="passenger">
        <route edges="190794129#5 -357575329 357575329 -358055173 -255925785#2 -255925785#1 -255925785#0 23162032#0 23162032#1 23162032#2 23162032#3 23162032#4 23162032#5 23162032#6 23162032#7 23162032#8 23162032#9 190525294#0 190525294#1 190525294#2 190525294#3 190525294#4" />
    </vehicle>
    <vehicle depart="18.60" departLane="best" id="43" type="passenger">
        <route edges="23162032#3 23162032#4 23162032#5 23162032#6 23162032#7 402281056 27617819#1 27617819#2 27617819#3 27617819#4 27617819#5 27617819#6 27617819#7 146196600#0 146196600#1 511066483 511066470 146544718 358195673 -359227314#1 -359227314#0 359227314#0" />
    </vehicle>
    <vehicle depart="19.20" departLane="best" id="44" type="passenger">
        <route edges="30098185#2 30098185#3 30098185#4 30098185#5 27617819#2 27617819#3 27617819#4 27617819#5 27617819#6 27617819#7 190816349#0 190816349#1 190816349#2 190816349#3 190816349#4 35901833#0 35901833#1 35901833#2 35901833#3 35901833#4 358055173" />
    </vehicle>
    <vehicle depart="19.40" departLane="best" id="45" type="passenger">
        <route edges="23162032#9 190525294#0 190525294#1 190525294#2 190525294#3 190525294#4 190525294#5 367453368#0 367453368#1" />
    </vehicle>
    <vehicle depart="19.60" departLane="best" id="46" type="passenger">
        <route edges="146196600#0 146196600#1 511066483 511066470 146544718 358195673 72456715#0 72456715#1 277000208#0" />
    </vehicle>
    <vehicle depart="19.80" departLane="best" id="47" type="passenger">
        <route edges="255925785#1 -255925785#1 -255925785#0 23162032#0 23162032#1 23162032#2 23162032#3 23162032#4 23162032#5" />
    </vehicle>
    <vehicle depart="20.20" departLane="best" id="48" type="passenger">
        <route edges="358055176#1 358055195 23162032#9 190525294#0 190525294#1 190525294#2 190525294#3 190525294#4 190525294#5 367453371 34474997#0 34474997#1 34474997#2 34474997#3 34474997#4 34474997#5 34474997#6 30098185#0" />
    </vehicle>
    <vehicle depart="20.60" departLane="best" id="49" type="passenger">
        <route edges="34475191#4 349851315 30098185#5 27617819#2 27617819#3 27617819#4 27617819#5 27617819#6 27617819#7 146196600#0 146196600#1 511066483 511066470 146544718 358195673 -359227314#1" />
    </vehicle>
    <vehicle depart="21.20" departLane="best" id="50" type="passenger">
        <route edges="146196600#1 511066483 511066470 146544718 358195673 -359227314#1 -359227314#0 511066490 357424594#0 357424594#1 357424594#2 190816349#0 190816349#1 190816349#2 190816349#3 190816349#4 35901833#0 35901833#1 35901833#2 35901833#3 35901833#4 -255925785#2 -255925785#1 -255925785#0 23162032#0 23162032#1 23162032#2 23162032#3 23162032#4 23162032#5 23162032#6 23162032#7 23162032#8 23162032#9 190525294#0 190525294#1 190525294#2 190525294#3 190525294#4 190525294#5 367453371 34474997#0 34474997#1 34474997#2 34474997#3 34474997#4 34474997#5 34474997#6 34474997#7" />
    </vehicle>
    <vehicle depart="21.60" departLane="best" id="51" type="passenger">
        <route edges="35902564#1 35902564#2 35902564#3 448479840#1 448479840#2 511066491 358055149 511066518#0 511066518#1 358089846 511066434 511066443#0 511066443#1 359227314#0 359227314#1 72456715#0 72456715#1" />
    </vehicle>
    <vehicle depart="22.20" departLane="best" id="52" type="passenger">
        <route edges="34474997#6 34474997#7 34474997#8 34474997#9 448479840#0 448479840#1 448479840#2 511066491 358055149 511066518#0 511066518#1 358089846 511066434 511066443#0 511066443#1 511066490 357424594#0 357424594#1 357424594#2 190816349#0 190816349#1 190816349#2 190816349#3 190816349#4 35901833#0 35901833#1 35901833#2 35901833#3 35901833#4 -255925785#2 -255925785#1 255925785#1" />
    </vehicle>
    <vehicle depart="22.60" departLane="best" id="53" type="passenger">
        <route edges="190525294#2 190525294#3 190525294#4 190525294#5 367453371 34474997#0 34474997#1 34474997#2 34474997#3 34474997#4 34474997#5 34474997#6 34474997#7 34474997#8 34474997#9 448479840#0 448479840#1 448479840#2 511066491 358055149 511066518#0 511066518#1 358089846 511066434 511066443#0 511066443#1 511066490 357424594#0 357424594#1 357424594#2 190816349#0 190816349#1 190816349#2 190816349#3 190816349#4 35901833#0 35901833#1 35901833#2 35901833#3 35901833#4 35901598#0" />
    </vehicle>
    <vehicle depart="22.80" departLane="best" id="54" type="passenger">
        <route edges="255925785#0 255925785#1 255925785#2 358055173 -357575329 357575329 23162040#0 23162040#1 23162040#2 23162040#3 23161464#0 23161464#1 511066483 511066470 146544718 358195673 -359227314#1 -359227314#0 511066490 357424594#0 357424594#1 357424594#2" />
    </vehicle>
    <vehicle depart="23.20" departLane="best" id="55" type="passenger">
        <route edges="23051255#1 23051255#2 23162032#0 23162032#1 23162032#2 23162032#3 23162032#4 23162032#5 23162032#6" />
    </vehicle>
    <vehicle depart="23.40" departLane="best" id="56" type="passenger">
        <route edges="34474997#1 34474997#2 34474997#3 34474997#4 34474997#5 34474997#6 34474997#7 34474997#8 34474997#9 35901888#0 35901888#1 35901888#2 35901888#3" />
    </vehicle>
    <vehicle depart="24.40" departLane="best" id="57" type="passenger">
        <route edges="35773427#1 35773427#2 35773427#3 30098185#1 35902125#2 35902033#2" />
    </vehicle>
    <vehicle depart="24.60" departLane="best" id="58" type="passenger">
        <route edges="34474997#5 34474997#6 34474997#7 34474997#8 34474997#9 448479840#0 448479840#1 448479840#2 511066491 358055149 511066518#0 511066518#1 358089846 511066434 511066443#0 511066443#1 511066490 357424594#0 357424594#1 357424594#2 190816349#0 190816349#1 190816349#2 190816349#3 190816349#4 35901833#0 35901833#1" />
    </vehicle>
    <vehicle depart="24.80" departLane="best" id="59" type="passenger">
        <route edges="30098185#2 30098185#3 30098185#4 30098185#5 27617819#2 27617819#3 27617819#4 27617819#5 27617819#6 27617819#7 146196600#0 146196600#1 511066483 511066470 146544718 358195673 -359227314#1" />
    </vehicle>
    <vehicle depart="26.40" departLane="best" id="60" type="passenger">
        <route edges="23051255#0 23051255#1 23051255#2 23162032#0 23162032#1 23162032#2 23162032#3 23162032#4 23162032#5 23162032#6 23162032#7 23162032#8 23162032#9 190525294#0 190525294#1 190525294#2 190525294#3 190525294#4 190525294#5 367453371 34474997#0 34474997#1 34475191#0 34475191#1 34475191#2 34475191#3" />
    </vehicle>
    <vehicle depart="26.60" departLane="best" id="61" type="passenger">
        <route edges="190525294#5 367453371 34474997#0 34474997#1 34474997#2 34474997#3 34474997#4 34474997#5 34474997#6 34474997#7 34474997#8 34474997#9 448479840#0 448479840#1 448479840#2 511066491 358055149 511066518#0 511066518#1 358089846 511066434 511066443#0 511066443#1 511066490 357424594#0 357424594#1 357424594#2 190816349#0 190816349#1 190816349#2 190816349#3 190816349#4 35901833#0 35901833#1 35901833#2 35901833#3 35901833#4 -255925785#2 -255925785#1 -255925785#0 23162032#0 23162032#1 23162032#2 23162032#3 23162032#4 23162032#5 23162032#6 23162032#7 23162032#8 23162032#9 190525294#0" />
    </vehicle>
    <vehicle depart="27.20" departLane="best" id="62" type="passenger">
        <route edges="30098185#4 30098185#5 27617819#2 27617819#3 27617819#4 27617819#5 27617819#6 27617819#7 146196600#0 146196600#1 191454927#0 191454927#1 35903166#0 35903166#1 35903166#2 27131168#0 27131168#1 27131168#2 190816355 190816353 146544715#0 146544715#1 -146544715#1" />
    </vehicle>
    <vehicle depart="27.60" departLane="best" id="63" type="passenger">
        <route edges="190794129#3 190794129#4 190794129#5 -357575329 357575329 -358055173 -255925785#2 -255925785#1 -255925785#0 23162032#0 23162032#1 23162032#2 23162032#3 23162032#4 23162032#5 23162032#6 23162032#7 23162032#8 23162032#9 190525294#0 190525294#1 190525294#2 190525294#3 190525294#4 190525294#5 367453371 34474997#0 34474997#1 34474997#2 34474997#3 34474997#4 34474997#5 34474997#6 34474997#7 34474997#8 34474997#9 448479840#0 448479840#1 429907987" />
    </vehicle>
    <vehicle depart="28.00" departLane="best" id="64" type="passenger">
        <route edges="358055191#1 75503605#0 75503605#1 23162032#0 23162032#1 23162032#2 23162032#3 23162032#4 23162032#5 23162032#6 23162032#7 402281056 27617819#1 27617819#2 27617819#3 27617819#4 27617819#5 27617819#6 27617819#7 146196600#0 146196600#1" />
    </vehicle>
    <vehicle depart="28.60" departLane="best" id="65" type="passenger">
        <route edges="34474997#1 34474997#2 34474997#3 34474997#4 34474997#5 34474997#6 34474997#7 34474997#8 34474997#9 448479840#0 448479840#1 448479840#2 511066491 358055149 511066518#0 511066518#1 358089846 511066434 511066443#0 511066443#1 511066490 357424594#0 357424594#1 357424594#2 190816349#0 190816349#1 190816349#2 190816349#3 190816349#4 35901833#0 35901833#1 35901833#2" />
    </vehicle>
    <vehicle depart="29.00" departLane="best" id="66" type="passenger">
        <route edges="35901833#2 35901833#3 35901833#4 -255925785#2 -255925785#1 -255925785#0 23162032#0 23162032#1 23162032#2 23162032#3 23162032#4 23162032#5 23162032#6 23162032#7 23162032#8 23162032#9 190525294#0 190525294#1 190525294#2 190525294#3 190525294#4 190525294#5 367453371 34474997#0 34474997#1 34474997#2 34474997#3 34474997#4 34474997#5 34474997#6 30098185#0 35773427#4 35902033#3" />
    </vehicle>
    <vehicle depart="29.40" departLane="best" id="67" type="passenger">
        <route edges="34474997#1 34475191#0 34475191#1 34475191#2 34475191#3 34475191#4 349851315 30098185#5 27617819#2 27617819#3" />
    </vehicle>
    <vehicle depart="29.60" departLane="best" id="68" type="passenger">
        <route edges="23051255#2 23162032#0 23162032#1 23162032#2 23162032#3 23162032#4 23162032#5 23162032#6 23162032#7 23162032#8" />
    </vehicle>
    <vehicle depart="30.20" departLane="best" id="69" type="passenger">
        <route edges="35902564#3 448479840#1" />
    </vehicle>
    <vehicle depart="31.00" departLane="best" id="70" type="passenger">
        <route edges="190816349#4 35901833#0 35901833#1 146546027#0 146546027#1 23162040#2 23162040#3 190426957#0 190426957#1 190426957#2 190426957#3 190426957#4" />
    </vehicle>
    <vehicle depart="31.60" departLane="best" id="71" type="passenger">
        <route edges="511066443#1 511066490 357424594#0 357424594#1 357424594#2 190816349#0 190816349#1 190816349#2 190816349#3 190816349#4 35901833#0 35901833#1 35901833#2 35901833#3 35901833#4 -255925785#2 -255925785#1 -255925785#0 23162032#0 23162032#1 23162032#2" />
    </vehicle>
    <vehicle depart="31.80" departLane="best" id="72" type="passenger">
        <route edges="23162032#2 23162032#3 23162032#4 23162032#5 23162032#6 23162032#7 23162032#8 23162032#9 190525294#0 190525294#1 190525294#2 190525294#3 190525294#4 190525294#5 367453371 34474997#0 34474997#1 34475191#0 34475191#1 34475191#2 34475191#3 34475191#4 349851315 349851317#0" />
    </vehicle>
    <vehicle depart="32.40" departLane="best" id="73" type="passenger">
        <route edges="190525294#4 190525294#5 367453371 34474997#0 34474997#1 34474997#2 34474997#3 34474997#4 34474997#5 34474997#6 34474997#7 34474997#8 34474997#9 448479840#0 448479840#1 448479840#2 511066491 358055149 511066518#0 511066518#1 358089846 511066434 511066443#0 511066443#1 511066490 357424594#0 357424594#1 357424594#2 190816349#0 190816349#1 190816349#2 190816349#3 190816349#4 35901833#0 35901833#1 146546027#0 146546027#1 23162040#2 23162040#3 23161464#0" />
    </vehicle>
    <vehicle depart="32.60" departLane="best" id="74" type="passenger">
        <route edges="-358055173 -255925785#2 -255925785#1 -255925785#0 23162032#0 23162032#1 23162032#2 23162032#3 23162032#4 23162032#5 23162032#6 23162032#7 23162032#8 23162032#9 190525294#0 190525294#1 190525294#2 190525294#3 190525294#4 190525294#5 367453371 34474997#0 34474997#1 34475191#0 34475191#1 34475191#2 34475191#3 34475191#4 35902033#0 35902033#1" />
    </vehicle>
    <vehicle depart="32.80" departLane="best" id="75" type="passenger">
        <route edges="23051255#0 23051255#1 23051255#2 23162032#0 23162032#1 23162032#2 23162032#3 23162032#4 23162032#5" />
    </vehicle>
    <vehicle depart="33.20" departLane="best" id="76" type="passenger">
        <route edges="27617819#2 27617819#3 27617819#4 27617819#5 35902564#0 35902564#1 35902564#2 35773427#1 35773427#2 35773427#3 35773427#4 35902033#3 34474997#6 34474997#7 34474997#8 34474997#9 35901888#0" />
    </vehicle>
    <vehicle depart="33.80" departLane="best" id="77" type="passenger">
        <route edges="511066434 511066443#0 511066443#1 511066490 357424594#0 357424594#1 357424594#2 190816349#0 190816349#1 190816349#2 190816349#3 190816349#4 35901833#0 35901833#1 35901833#2 35901833#3 35901833#4 -255925785#2 -255925785#1 -255925785#0 23162032#0" />
    </vehicle>
    <vehicle depart="34.80" departLane="best" id="78" type="passenger">
        <route edges="23162032#0 23162032#1 23162032#2 23162032#3 23162032#4 23162032#5 23162032#6 23162032#7 23162032#8 358195684" />
    </vehicle>
    <vehicle depart="35.40" departLane="best" id="79" type="passenger">
        <route edges="30098185#3 30098185#4 30098185#5 27617819#2 27617819#3 27617819#4 27617819#5 27617819#6 27617819#7 146196600#0 146196600#1 511066483 511066470 146544718 358195673 72456715#0 72456715#1 277000208#0" />
    </vehicle>