<additional>
    <tlLogic id="1628378034" type="static" programID="1" offset="0">	<!--1-->
        <phase duration="36" state="Grrrr"/>
        <phase duration="4" state="yrrrr"/>
        <phase duration="6" state="rrrrG"/>
        <phase duration="4" state="rrrry"/>
        <phase duration="36" state="rGGGr"/>
        <phase duration="4" state="ryyyr"/>
    </tlLogic>
    <tlLogic id="2023888620" type="static" programID="1" offset="0">	<!--2-->
        <phase duration="36" state="GGrrrrrGrr"/>
        <phase duration="4" state="yyrrrrryrr"/>
        <phase duration="6" state="rrGrrrrrGG"/>
        <phase duration="4" state="rryrrrrryy"/>
        <phase duration="36" state="rrrGGGGrrr"/>
        <phase duration="4" state="rrryyyyrrr"/>
    </tlLogic>
    <tlLogic id="2070949328" type="static" programID="1" offset="0">	<!--3-->
        <phase duration="41" state="GGGrr"/>
        <phase duration="4" state="yyyrr"/>
        <phase duration="41" state="rrrGG"/>
        <phase duration="4" state="rrryy"/>
    </tlLogic>
    <tlLogic id="248606020" type="static" programID="1" offset="0">	<!--4-->
        <phase duration="28" state="GGGrrrrrrGGrr"/>
        <phase duration="9" state="yyyrrrrrryyrr"/>
        <phase duration="6" state="rrrGrrrrrrrGG"/>
        <phase duration="9" state="rrryrrrrrrryy"/>
        <phase duration="29" state="rrrrGGGGGrrrr"/>
        <phase duration="9" state="rrrryyyyyrrrr"/>
    </tlLogic>
    <tlLogic id="248742493" type="static" programID="1" offset="0">	<!--5-->
        <phase duration="36" state="GGGGrrrrGr"/>
        <phase duration="9" state="yyyyrrrryr"/>
        <phase duration="36" state="rrrrGGGGrG"/>
        <phase duration="9" state="rrrryyyyry"/>
    </tlLogic>
    <tlLogic id="303275667" type="static" programID="1" offset="0">	<!--6..30-->
        <phase duration="38" state="GGr"/>
        <phase duration="7" state="yyr"/>
        <phase duration="38" state="rrG"/>
        <phase duration="7" state="rry"/>
    </tlLogic>
    <tlLogic id="303275904" type="static" programID="1" offset="0">	<!--7-->
        <phase duration="38" state="GGGrrrrr"/>
        <phase duration="7" state="yyyrrrrr"/>
        <phase duration="38" state="rrrGGGGG"/>
        <phase duration="7" state="rrryyyyy"/>
    </tlLogic>
    <tlLogic id="303278079" type="static" programID="1" offset="0">	<!--8-->
        <phase duration="36" state="Grrr"/>
        <phase duration="9" state="yrrr"/>
        <phase duration="36" state="rGGG"/>
        <phase duration="9" state="ryyy"/>
    </tlLogic>
    <tlLogic id="303278277" type="static" programID="1" offset="0">	<!--9-->
        <phase duration="36" state="Grrr"/>
        <phase duration="9" state="yrrr"/>
        <phase duration="36" state="rGGG"/>
        <phase duration="9" state="ryyy"/>
    </tlLogic>
    <tlLogic id="303278502" type="static" programID="1" offset="0">	<!--10-->
        <phase duration="36" state="GGGGGrrrrr"/>
        <phase duration="9" state="yyyyyrrrrr"/>
        <phase duration="36" state="rrrrrGGGGG"/>
        <phase duration="9" state="rrrrryyyyy"/>
    </tlLogic>
    <tlLogic id="331525911" type="static" programID="1" offset="0">	<!--11-->
        <phase duration="41" state="GGGrr"/>
        <phase duration="4" state="yyyrr"/>
        <phase duration="41" state="rrrGG"/>
        <phase duration="4" state="rrryy"/>
    </tlLogic>
    <tlLogic id="331526235" type="static" programID="1" offset="0">	<!--12-->
        <phase duration="38" state="GGrr"/>
        <phase duration="7" state="yyrr"/>
        <phase duration="38" state="rrGG"/>
        <phase duration="7" state="rryy"/>
    </tlLogic>
    <tlLogic id="3556358828" type="static" programID="1" offset="0">	<!--13-->
        <phase duration="36" state="GGrrrr"/>
        <phase duration="4" state="yyrrrr"/>
        <phase duration="6" state="rrGGrr"/>
        <phase duration="4" state="rryyrr"/>
        <phase duration="36" state="rrrrGG"/>
        <phase duration="4" state="rrrryy"/>
    </tlLogic>	
    <tlLogic id="3639828841" type="static" programID="1" offset="0">	<!--14-->
        <phase duration="41" state="GGGGrrr"/>
        <phase duration="4" state="yyyyrrr"/>
        <phase duration="41" state="rrrrGGG"/>
        <phase duration="4" state="rrrryyy"/>
    </tlLogic>
    <tlLogic id="3691964514" type="static" programID="1" offset="0">	<!--15..70-->
        <phase duration="28" state="rrrGGGrrr"/>
        <phase duration="9" state="rrryyyrrr"/>
        <phase duration="6" state="rrrrrrGGG"/>
        <phase duration="9" state="rrrrrryyy"/>
        <phase duration="29" state="GGGGrrrrr"/>
        <phase duration="9" state="yyyyrrrrr"/>
    </tlLogic>
    <tlLogic id="418234837" type="static" programID="1" offset="0">	<!--16-->
        <phase duration="41" state="GGrr"/>
        <phase duration="4" state="yyrr"/>
        <phase duration="41" state="rrGG"/>
        <phase duration="4" state="rryy"/>
    </tlLogic>
    <tlLogic id="418234847" type="static" programID="1" offset="0">	<!--17-->
        <phase duration="41" state="GGrr"/>
        <phase duration="4" state="yyrr"/>
        <phase duration="41" state="rrGG"/>
        <phase duration="4" state="rryy"/>
    </tlLogic>
    <tlLogic id="418234851" type="static" programID="1" offset="0">	<!--18-->
        <phase duration="41" state="GGrr"/>
        <phase duration="4" state="yyrr"/>
        <phase duration="41" state="rrGG"/>
        <phase duration="4" state="rryy"/>
    </tlLogic>
    <tlLogic id="418376981" type="static" programID="1" offset="0">	<!--19-->
        <phase duration="41" state="GGGGrrr"/>
        <phase duration="4" state="yyyyrrr"/>
        <phase duration="41" state="rrrrGGG"/>
        <phase duration="4" state="rrrryyy"/>
    </tlLogic>
    <tlLogic id="418376983" type="static" programID="1" offset="0">	<!--20-->
        <phase duration="41" state="GGrr"/>
        <phase duration="4" state="yyrr"/>
        <phase duration="41" state="rrGG"/>
        <phase duration="4" state="rryy"/>
    </tlLogic>
    <tlLogic id="418376984" type="static" programID="1" offset="0">	<!--21-->
        <phase duration="36" state="GGGGrrr"/>
        <phase duration="9" state="yyyyrrr"/>
        <phase duration="36" state="rrrrGGG"/>
        <phase duration="9" state="rrrryyy"/>
    </tlLogic>
    <tlLogic id="419625734" type="static" programID="1" offset="0">	<!--22..98-->
        <phase duration="36" state="Grrr"/>
        <phase duration="9" state="yrrr"/>
        <phase duration="36" state="rGGG"/>
        <phase duration="9" state="ryyy"/>
    </tlLogic>
    <tlLogic id="419625735" type="static" programID="1" offset="0">	<!--23-->
        <phase duration="41" state="GGrr"/>
        <phase duration="4" state="yyrr"/>
        <phase duration="41" state="rrGG"/>
        <phase duration="4" state="rryy"/>
    </tlLogic>
    <tlLogic id="419641199" type="static" programID="1" offset="0">	<!--24-->
        <phase duration="41" state="GGGrr"/>
        <phase duration="4" state="yyyrr"/>
        <phase duration="41" state="rrrGG"/>
        <phase duration="4" state="rrryy"/>
    </tlLogic>
    <tlLogic id="419641406" type="static" programID="1" offset="0">	<!--25..110-->
        <phase duration="41" state="GGGrrGG"/>
        <phase duration="4" state="yyyrryy"/>
        <phase duration="41" state="rrrGGrr"/>
        <phase duration="4" state="rrryyrr"/>
    </tlLogic>
    <tlLogic id="419646227" type="static" programID="1" offset="0">	<!--26-->
        <phase duration="41" state="GGrr"/>
        <phase duration="4" state="yyrr"/>
        <phase duration="41" state="rrGG"/>
        <phase duration="4" state="rryy"/>
    </tlLogic>
    <tlLogic id="419652679" type="static" programID="1" offset="0">	<!--27-->
        <phase duration="36" state="GGr"/>
        <phase duration="9" state="yyr"/>
        <phase duration="36" state="rrG"/>
        <phase duration="9" state="rry"/>
    </tlLogic>
    <tlLogic id="419652681" type="static" programID="1" offset="0">	<!--28-->
        <phase duration="41" state="GGrr"/>
        <phase duration="4" state="yyrr"/>
        <phase duration="41" state="rrGG"/>
        <phase duration="4" state="rryy"/>
    </tlLogic>
    <tlLogic id="419652686" type="static" programID="1" offset="0">	<!--29-->
        <phase duration="41" state="GGrr"/>
        <phase duration="4" state="yyrr"/>
        <phase duration="41" state="rrGG"/>
        <phase duration="4" state="rryy"/>
    </tlLogic>
    <tlLogic id="419652689" type="static" programID="1" offset="0">	<!--30-->
        <phase duration="41" state="GGrr"/>
        <phase duration="4" state="yyrr"/>
        <phase duration="41" state="rrGG"/>
        <phase duration="4" state="rryy"/>
    </tlLogic>
    <tlLogic id="419669836" type="static" programID="1" offset="0">	<!--31-->
        <phase duration="36" state="GGr"/>
        <phase duration="9" state="yyr"/>
        <phase duration="36" state="rrG"/>
        <phase duration="9" state="rry"/>
    </tlLogic>
    <tlLogic id="419677118" type="static" programID="1" offset="0">	<!--32-->
        <phase duration="38" state="Gr"/>
        <phase duration="7" state="yr"/>
        <phase duration="38" state="rG"/>
        <phase duration="7" state="ry"/>
    </tlLogic>
    <tlLogic id="577406877" type="static" programID="1" offset="0">	<!--33-->
        <phase duration="70" state="GGr"/>
        <phase duration="7" state="yyr"/>
        <phase duration="6" state="rrG"/>
        <phase duration="7" state="rry"/>
    </tlLogic>
    <tlLogic id="667193418" type="static" programID="1" offset="0">	<!--34..148-->
        <phase duration="32" state="GrrGGrrrr"/>
        <phase duration="7" state="yrryyrrrr"/>
        <phase duration="6" state="rGGrrGrrr"/>
        <phase duration="7" state="ryyrryrrr"/>
        <phase duration="31" state="rrrrrrGGG"/>
        <phase duration="7" state="rrrrrryyy"/>
    </tlLogic>
</additional>