<routes xmlns:xsi="http://www.w3.org/2001/XMLSchema-instance" xsi:noNamespaceSchemaLocation="http://sumo.dlr.de/xsd/routes_file.xsd">
    <vType id="passenger" maxSpeed="50.00" vClass="passenger" />
    <vehicle depart="0.50" departLane="best" id="0" type="passenger">
        <route edges="506351875#6 506351875#7 506351875#8 506351875#9 308976804#6 24006860#6 24006860#7 24006860#8 24006860#9 24006860#10 24006860#11 24006860#12 24006860#13 51423119#0 51423119#1 51423119#2 51423119#3 506351852#0 455875846#2 407513570#0 407513570#1 407513570#2 407513570#3 407513570#4 407513570#5 407513570#6 407513570#7 407513569#0 407513569#1 407513569#2 26697213#0 26697213#1 26697213#2 26697213#3 26697213#4 26697213#5 26697213#6 506322838 159980284#0 159980284#1 159980284#2 159980284#3 159980284#4 198874288#0 198874288#1 198874288#2 198874288#3 -25715401#4 -25715401#3 -25715401#2 -25715401#1 -25715401#0 25715405#0 25715405#1 25715405#2 25715405#3 25715405#4 -131473130#4 -131473130#3 -131473130#2 -131473130#1 131473142#5" />
    </vehicle>
    <vehicle depart="1.50" departLane="best" id="1" type="passenger">
        <route edges="29043700#1 29043700#2 29043700#3 29043700#4 29043700#5 29043700#6 29043700#7 29043700#8 29043700#9 29043700#10 265002098#0 265002098#1 334849014 255431331#0 255431331#1 255431331#2 262966701 255431330 197130375#0 197130375#1 197130375#2 197130375#3 197130375#4" />
    </vehicle>
    <vehicle depart="3.00" departLane="best" id="2" type="passenger">
        <route edges="-264995556#3 264995556#3 -289609877#3 -289609877#2 -289609877#1 -289609877#0 -247027459#4 -247027459#3 -247027459#2 -247027459#1 -60787464#6 -60787464#5 -60787464#4 -60787464#3 -60787464#2 -60787464#1 -60787464#0 333293972#2 333293972#3 333293972#4 333293972#5 255247879 468047667 265001846 425376583#0 425376583#1 425376583#2 243317512#0 243317512#1 243317512#2 243317512#3 244509933 52513625#0 52513625#1 52513625#2 52513625#3 52513625#4 52513625#5 52513625#6 52513625#7 52513625#8 324482428#0 324482428#1 324482428#2 374960475#8 374960475#9 229885639 244450327#0 244450327#1 244450327#2 244450327#3 244450327#4 160307902#0 160307902#1" />
    </vehicle>
    <vehicle depart="4.00" departLane="best" id="3" type="passenger">
        <route edges="-308976804#4 308976804#4 308976804#5 308976804#6 308976804#7 308976804#8 308976804#9 308976804#10 308976804#11 468047663 468047662 515156286 515156284#0 515156284#1 515156284#2 515156284#3 515156284#4 515156284#5 515156284#6 515156284#7 310677980 310620429#0 310620429#1 310620429#2 310620429#3 310620429#4 310620429#5 217690233 515156289 -515156289" />
    </vehicle>
    <vehicle depart="5.00" departLane="best" id="4" type="passenger">
        <route edges="246307710 387549845#0 387549845#1 387549845#2 387549845#3 26697218#0 26697218#1 26697218#2 26697218#3 26697213#4 26697213#5 26697213#6 506322838 159980284#0 159980284#1 159980284#2 159980284#3 159980284#4 198874288#0 198874288#1 198874288#2 198874288#3 317839331#0 317839331#1 317839331#2 317839331#3 229844763#0" />
    </vehicle>
    <vehicle depart="6.00" departLane="best" id="5" type="passenger">
        <route edges="51885100#5 51885100#6 51885100#7 329022967#12 329022967#13 329022967#14 329022967#15 329022967#16 329022967#17 329022967#18 515156287#0 515156287#1 515156287#2 515156287#3 515156306 336634148#0 336634148#1 335584584 515156313#0 515156313#1 515156313#2 515156313#3 264550937 229885650#0 229885650#1 244456574#0 244456574#1 244456574#2 274809896#0 274809896#1 274809896#2 515166734#0 515166734#1 515166734#2 515166734#3 515166740#0 515166740#1 330804412#0 330804412#1 198725737#0 198725737#1 198725737#2 22764020#0" />
    </vehicle>
    <vehicle depart="8.50" departLane="best" id="6" type="passenger">
        <route edges="25715400#0 25715400#1 25715400#2 25715400#3 25715400#4 25715400#5 -381733807#1 -381733807#0" />
    </vehicle>
    <vehicle depart="9.50" departLane="best" id="7" type="passenger">
        <route edges="238208422#4 -238208422#4 -238208422#3 -238208422#2 -238208422#1 -238208422#0 -238208424#4 -238208424#3 -238208424#2 -238208424#1 -238208424#0 -179000190#1 -179000190#0 22764012#0 22764012#1 268564486#0 268564486#1 303413199#0 303413199#1 303413199#2 303413199#3 303413199#4 303413199#5 303413199#6 303413199#7 303413199#8 303413199#9 462399811 105496781#0 105496781#1 366116366#0 366116366#1 366116366#2 366116366#3 366116366#4 366116366#5 160307905#0 160307905#1 334849013 243317512#0 243317512#1 197315982#0 197315982#1" />
    </vehicle>
    <vehicle depart="10.50" departLane="best" id="8" type="passenger">
        <route edges="268564472#3 268564472#4 268564472#5 268564472#6 -255431340#1 -255431340#0 -265001846 243317509#0 243317509#1 243317509#2 334849012#0 334849012#1 334849012#2 333279726 105496781#0 105496781#1 366116371#0 366116371#1 443580489#0 443580489#1 443580489#2 443580489#3 312603791#0 312603791#1 312603791#2 312603791#3 312603791#4 312603791#5 -255431330 -262966701 -255431331#2 -255431331#1 -255431331#0 -29043695#5 -29043695#4 -29043695#3 -29043695#2 -29043695#1 -29043695#0 -229842825#1 229842825#1" />
    </vehicle>
    <vehicle depart="11.00" departLane="best" id="9" type="passenger">
        <route edges="-60787453#2 60787453#2 60787453#3 60787453#4 60787453#5 297240254#4 244456586#0 244456586#1 244456586#2 244456586#3 262211599 229842825#0 229842825#1 229842825#2 229842825#3 229842825#4 229842825#5 262966699#0 262966699#1 262966699#2 262966699#3 414194145 414194146#0 414194146#1 414194146#2 51919204#0 51919204#1 51919204#2 51919208#0 51919208#1 51919208#2 51919208#3 51919208#4 51919208#5 397956114 397956111 495522333#0 495522333#1 495522333#2 495522333#3 495522333#4 374960470#0 374960470#1 243317514#0 243317514#1 243317514#2 243317514#3 243317514#4 367214988#0 367214988#1 367214988#2 367245164#0 367245164#1 244456578 336634150 52242862 515156319 229885657 318254709 384694135#0 384694135#1 264551743 515156300#0 515156300#1 515156300#2 -515156291 -515156289 -217690233 515156287#0 515156287#1 33679741#0 33679741#1 33679741#2 33679741#3 33679741#4 33679741#5 33679741#6 33679741#7 33679741#8 33679741#9 33679741#10 33679741#11 33679741#12" />
    </vehicle>
    <vehicle depart="15.50" departLane="best" id="10" type="passenger">
        <route edges="509695170#0 509695170#1 509695170#2 374960475#3 374960475#4 374960475#5 374960475#6 374960475#7 324482428#3 324482428#4 324482428#5 197662926#0 197662926#1 197662926#2 51919248 264399459#0 264399459#1 244450423 33679536 244450456#0" />
    </vehicle>
    <vehicle depart="16.50" departLane="best" id="11" type="passenger">
        <route edges="264399458#1 681395579 495522333#2 495522333#3 495522333#4 374960470#0 374960470#1 243317514#0 243317514#1 243317514#2 243317514#3 243317514#4 367214988#0 367214988#1 367214988#2 367245164#0 367245164#1 244456578 336634150 52242862 515156319 289004416#0 289004416#1 289004416#2 289004416#3 198874292#0 198874292#1 198874292#2 159980284#0 159980284#1 159980284#2 159980284#3 159980284#4 198874288#0 198874288#1 198874288#2 198874288#3 -25715401#4 -25715401#3 -25715401#2 157964878#9 157964878#10 157964878#11 157964878#12 157964878#13 268564474#3 -268564474#3" />
    </vehicle>
    <vehicle depart="18.00" departLane="best" id="12" type="passenger">
        <route edges="131457247#2 157964878#21 131457243#2 131457243#3 131457243#4 131457243#5 131457243#6 131457243#7 198725737#9 198725737#10 198725737#11 198725737#12 198725737#13 198725737#0 256186572#0 256186572#1 256186572#2 256186572#3 269502157#0 269502157#1 269502157#2 317410455 246651378#1 262844198#0 262844198#1 262844198#2 -312929530#1 -312929530#0 -270025399#2 -270025399#1 -270025399#0 -268564487#1 -268564487#0 -255431340#1 -255431340#0 -265001846 243317509#0 243317509#1 243317509#2 -160307905#1 -160307905#0 -334849020#11 -334849020#10 -334849020#9 -334849020#8 -334849020#7 -334849020#6 -284566179 60787464#0 60787464#1 60787464#2 60787464#3 60787464#4 60787464#5 60787464#6 60787464#7 -60787464#7" />
    </vehicle>
    <vehicle depart="19.00" departLane="best" id="13" type="passenger">
        <route edges="-244456575 -244456576#1 -244456576#0 160279691#0 160279691#1 160279691#2 160279691#3 333279724 60787472#0 60787472#1 268564470#0 268564470#1 270025385#0 270025385#1 270025385#2 268564471#0 268564471#1 268564471#2 246651378#0 246651378#1 256186570#0 -229885663#2" />
    </vehicle>
    <vehicle depart="20.00" departLane="best" id="14" type="passenger">
        <route edges="-25715405#4 -25715405#3 -25715405#2 -25715405#1 -25715405#0 297240250#14 297240250#15 297240250#16 297240250#17 297240250#18 297240250#19 297240250#20 297240250#21 297240250#22 297339418 238526526#0 238526526#1 238526526#2 238526526#3 506322839#0 506322839#1 506322839#2 506322839#3 506322837#0 506322837#1 506322837#2 506322837#3 506322836#0 506322836#1 506322836#2 506322836#3 506322836#4 506322836#5 318254711 325213930 52242861 264550938#0 264550938#1 335584585#0 335584585#1 303413198#0 303413198#1 336634151#0 336634151#1 355791336 241518672#0 241518672#1 455330016#0 455330016#1 455330016#2 374960471 462808824 264995112#0 264995112#1 462399812 334852289 52513624#0 52513624#1 52513624#2 287327325#0 287327325#1 244450327#0 244450327#1 244450327#2 244450327#3 244450327#4 334852287#0 334852287#1 334852287#2 334852287#3 334852287#4 334852287#5 334852287#6 334852287#7 334852287#8 334852287#9 366116366#0 160279691#2" />
    </vehicle>
    <vehicle depart="20.50" departLane="best" id="15" type="passenger">
        <route edges="264551742#2 232106525#3 232106525#4 269505245#0 269505245#1 269788957 384694136#0 384694136#1 515156308 335584584 515156313#0 515156313#1 515156313#2 515156313#3 264550938#0 264550938#1 -229885640 -198414876#5 -198414876#4 -198414876#3 -198414876#2 -198414876#1 -198414876#0 -238208422#6 -238208422#5 -238208422#4 -238208422#3 -238208422#2 -238208422#1 -238208422#0 -238208424#4 -238208424#3 -238208424#2 -238208424#1 -238208424#0 23416666#0 23416666#1 106335678#0" />
    </vehicle>
    <vehicle depart="22.00" departLane="best" id="16" type="passenger">
        <route edges="269789536#2 269789536#3 269789536#4 269789536#5 -198874289#5 -198874289#4 -198874289#3 -198874289#2 -198874289#1 -198874289#0 -270765870 506322836#0 506322836#1 506322836#2 506322836#3 506322836#4 506322836#5 318254711 325213930 52242861 264550938#0 264550938#1 335584585#0 335584585#1 303413198#0 303413198#1 336634151#0 336634151#1 355791336 241518672#0 241518672#1 455330016#0 455330016#1 455330016#2 374960471 462808824 264995112#0 264995112#1 462399812 287316011#0 287316011#1 287316011#2 287316011#3 51919209#0 51919203#0 51919203#1 334852291 -229842826 -414194146#2 -414194146#1 -414194146#0 -414194145 -262966699#3 -262966699#2 -262966699#1 -262966699#0 -229842825#5 -229842825#4 -229842825#3 -229842825#2 -229842825#1" />
    </vehicle>
    <vehicle depart="22.50" departLane="best" id="17" type="passenger">
        <route edges="407513573#1 407513573#2 407513573#3 407513569#0 407513569#1 407513569#2 26697213#0 26697213#1 26697213#2 26697213#3 26697213#4 26697213#5 26697213#6 506322838 159980284#0 159980284#1 159980284#2 159980284#3 159980284#4 198874288#0 198874288#1 198874288#2 198874288#3 -25715401#4 -25715401#3 -25715401#2 -25715401#1 -25715401#0 25715405#0 25715405#1 25715405#2 25715405#3 25715405#4 25715405#5 413949761#0 413949761#1 413949761#2 413949761#3 413949761#4 413949761#5 413949761#6 413949761#7 413949761#8 182973464#0 182973464#1 182973464#2 182973464#3 182973464#4 182973464#5 182973464#6" />
    </vehicle>
    <vehicle depart="23.50" departLane="best" id="18" type="passenger">
        <route edges="198725737#7 198725737#8 198725737#9 198725737#10 49795875#0 49795875#1 49795875#2 49795875#3 49795875#4 49795875#5 49795875#6 229844765#0 229844765#1 229844765#2 229844765#3 229844765#4 -269789739#16 -269789739#15 -269789739#14 -269789739#13 -269789739#12 -269789739#11 -269789739#10 -269789739#9 -269789739#8 -269789739#7 -269789739#6 -269789739#5 -269789739#4 -269789739#3 -269789739#2 -269789739#1 -269789739#0 -198874288#3 -198874288#2 -198874288#1 -198874288#0 -159980284#4 -159980284#3 -159980284#2 267609453#0 267609453#1 267609453#2 -267609453#2" />
    </vehicle>
    <vehicle depart="25.00" departLane="best" id="19" type="passenger">
        <route edges="311305728#5 311305728#6 311305728#7 29043700#0 244456586#3 262211599 229842825#0 229842825#1 229842825#2 229842825#3 229842825#4 229842825#5 262966699#0 262966699#1 262966699#2 262966699#3 414194145 414194146#0 414194146#1 414194146#2 51919204#0 51919204#1 51919204#2 51919208#0 51919208#1 51919208#2 51919208#3 51919208#4 51919208#5 397956114 397956111 495522333#0 495522333#1 495522333#2 495522333#3 495522333#4 374960470#0 374960470#1 243317514#0 243317514#1 243317514#2 243317514#3 243317514#4 367214988#0 367214988#1 367214988#2 367245164#0 367245164#1 244456578 336634150 52242862 515156319 289004416#0 289004416#1 289004416#2 289004416#3 198874292#0 198874292#1 198874292#2 159980284#0 -159980284#0 51423111#0 51423111#1 51423111#2 51423111#3 51423111#4 51423111#5 26697218#3 26697218#4 26697218#5" />
    </vehicle>
    <vehicle depart="25.50" departLane="best" id="20" type="passenger">
        <route edges="360851263#2 360851263#3 232106525#2 232106525#3 232106525#4 269505244#0 269505244#1 269505242 270765870 198874289#0 198874289#1 198874289#2 198874289#3 198874289#4 198874289#5 -269789536#5 182336890#0 182336890#1 182336890#2 182336890#3 422137861#0 422137861#1 269789739#6 269789739#7 269789739#8 269789739#9 269789739#10 269789739#11 269789739#12 269789739#13 -269789739#13" />
    </vehicle>
    <vehicle depart="26.50" departLane="best" id="21" type="passenger">
        <route edges="50823701#2 50823701#3 50823701#4 50823701#5 242632926#2 242632926#3 242632926#4 297240250#4 297240250#5 297240250#6 297240250#7 297240250#8 297240250#9 297240250#10 297240250#11 297240250#12 297240250#13 25715405#0 25715405#1 25715405#2 25715405#3 25715405#4 25715405#5 413949761#0 413949761#1" />
    </vehicle>
    <vehicle depart="27.00" departLane="best" id="22" type="passenger">
        <route edges="413949761#2 413949761#3 413949761#4 413949761#5 413949761#6 413949761#7 242632926#3 242632926#4 131457243#0 131457243#1 131457243#2 131457243#3 131457243#4 131457243#5 131457243#6 131457243#7 198725737#9 198725737#10 198725737#11 198725737#12 198725737#13 198725737#0 256186572#0 256186572#1 256186572#2 256186572#3 269502157#0 269502157#1 269502157#2 317410455 246651378#1 262844198#0 262844198#1 262844198#2 -312929530#1 -312929530#0 -270025399#2 -270025399#1 -270025399#0 -268564487#1 -268564487#0 -255431340#1 -255431340#0 -265001846 243317509#0 243317509#1 243317509#2 -160307905#1 -160307905#0 -334849020#11 -334849020#10 -334849020#9 -334849020#8 -334849020#7 -334849020#6 -284566179 60787464#0 60787464#1 60787464#2 60787464#3 60787464#4 60787464#5 60787464#6 -60787464#6" />
    </vehicle>
    <vehicle depart="28.00" departLane="best" id="23" type="passenger">
        <route edges="-247027459#2 -247027459#1 -60787464#6 -60787464#5 -60787464#4 -60787464#3 -60787464#2 -60787464#1 -60787464#0 333293972#2 333293972#3 333293972#4 333293972#5 255247879 468047667 265001846 425376583#0 425376583#1 425376583#2 243317512#0 243317512#1 243317512#2 243317512#3 244509933 52513625#0 52513625#1 52513625#2 52513625#3 52513625#4 52513625#5 52513625#6 52513625#7 52513625#8 324482428#0 324482428#1 324482428#2 324482428#3 324482428#4 324482428#5 197662926#0 197662926#1 197662926#2 495522333#0 495522333#1 495522333#2 495522333#3 495522333#4 374960470#0 374960470#1 243317514#0 243317514#1 243317514#2 243317514#3 243317514#4 367214988#0 367214988#1 367214988#2 367245164#0 367245164#1 244456578 336634150 52242862 515156319 229885657 318254709 384694135#0 384694135#1 264551743 515156300#0 515156300#1 515156300#2 289004429#0 289004429#1 289004429#2 289004429#3 289004429#4 289004429#5 468047661 506351807#0 506351807#1 506351807#2 506351807#3 506351807#4 506351807#5 506351807#6 -308976804#11 -308976804#10 -308976804#9 -308976804#8 -308976804#7 24006860#6 24006860#7 24006860#8 24006860#9 24006860#10 24006860#11 -445405189 506351875#2" />
    </vehicle>
    <vehicle depart="29.00" departLane="best" id="24" type="passenger">
        <route edges="246651378#0 246651378#1 256186570#0 256186570#1 256186570#2 256186570#3 269502155#0 269502155#1 269502155#2 269502155#3 269502155#4 198725737#2 198725737#3 198725737#4 198725737#5 198725737#6 198725737#7 198725737#8 198725737#9 198725737#10 49795875#0 49795875#1 49795875#2 49795875#3 49795875#4 49795875#5 49795875#6 229844765#0 229844765#1 229844765#2 229844765#3 229844765#4 515166738#0 515166738#1 515166738#2 515166738#3 515166738#4 330745380#0 330745380#1 330745380#2 229885657 318254709 384694135#0 384694135#1 264551743 515156300#0 515156300#1 515156300#2 289004429#0 289004429#1 289004429#2 289004429#3 289004429#4 289004429#5 468047661 506351814 506351832 306251261 310677986#0 310677986#1 310677986#2 310677986#3 189615571#0 51885098#0 51885098#1 51885098#2 51885098#3 51885098#4 51885098#5 51885098#6 51885098#7 264614093#0 264614093#1" />
    </vehicle>
    <vehicle depart="30.00" departLane="best" id="25" type="passenger">
        <route edges="25715402#3 25715402#4 -238208422#6 -238208422#5 -238208422#4 -238208422#3 -238208422#2 -238208422#1 -238208422#0 -330804415#4 -330804415#3 -330804415#2 -330804415#1 -330804415#0 -293207793#4 -293207793#3 -293207793#2 -293207793#1 -293207793#0 269502157#0 269502157#1 269502157#2 317410455 246651378#1 262844198#0 262844198#1 262844198#2 -312929530#1 -312929530#0 -270025399#2 -270025399#1 -270025399#0 -268564487#1" />
    </vehicle>
    <vehicle depart="31.00" departLane="best" id="26" type="passenger">
        <route edges="154829894#3 154829884#1 154829884#2 154829884#3 182973464#2 182973464#3 182973464#4 182973464#5 182973464#6 182973464#7 297240250#3 297240250#4 297240250#5 297240250#6 297240250#7 297240250#8 297240250#9 297240250#10 297240250#11 297240250#12 297240250#13 297240250#14 297240250#15 297240250#16 297240250#17 297240250#18 297240250#19 297240250#20 297240250#21 297240250#22 297339418 238526526#0 238526526#1 238526526#2 238526526#3 506322839#0 506322839#1 506322839#2 506322839#3 506322837#0 506322837#1 506322837#2 506322837#3 506322836#0 506322836#1 506322836#2 506322836#3 506322836#4 506322836#5 318254711 325213930 52242861 264550938#0 264550938#1 335584585#0 335584585#1 303413197#0 303413197#1 367214985 392259104 263225305#0 263225305#1 668070789 519643770 -519643765 519643765 519643768" />
    </vehicle>
    <vehicle depart="31.50" departLane="best" id="27" type="passenger">
        <route edges="312603792 247027459#0 -60787464#6 -60787464#5 -60787464#4 -60787464#3 -60787464#2 -60787464#1 -60787464#0 333293972#2 333293972#3 333293972#4 333293972#5 255247879 468047667 265001846 255431340#0 255431340#1 268564487#0 268564487#1 270025399#0 270025399#1 270025399#2 312929530#0 312929530#1 -262844198#2 -262844198#1 -262844198#0 256186570#0 256186570#1 256186570#2 256186570#3 269502155#0 269502155#1 269502155#2 269502155#3 269502155#4 198725737#2 198725737#3 198725737#4 198725737#5 198725737#6 198725737#7 198725737#8 198725737#9 198725737#10 49795875#0 49795875#1 49795875#2 49795875#3 49795875#4 49795875#5 49795875#6 229844765#0 229844765#1 229844765#2 229844765#3 229844765#4 -269789739#16 -269789739#15 -269789739#14 -269789739#13 -269789739#12 -269789739#11 -269789739#10 -269789739#9 -269789739#8 -269789739#7 -269789739#6 -269789739#5 -269789739#4 -269789739#3 -269789739#2 -269789739#1 -269789739#0 -25715401#4 -25715401#3 -25715401#2 -25715401#1 -25715401#0 25715405#0 25715405#1 25715405#2 25715405#3 25715405#4 25715405#5 413949761#0 413949761#1 413949761#2 413949761#3 413949761#4 413949761#5 413949761#6" />
    </vehicle>
    <vehicle depart="32.00" departLane="best" id="28" type="passenger">
        <route edges="308987019#10 -308987019#10 -308987019#9 -308987019#8 -308987019#7 -308987019#6 -308987019#5 -308987019#4 -308987019#3 308976804#11 468047663 468047662 515156286 515156284#0 515156284#1 515156284#2 515156284#3 515156284#4 515156284#5 515156284#6 515156284#7 310677980 310620429#0 310620429#1 310620429#2 310620429#3 310620429#4 310620429#5 515156287#0 515156287#1 515156287#2 515156287#3 515156305#0 515156305#1 515156305#2 515156305#3 244450453#0 244450453#1 244450453#2 244450453#3 244450453#4 244450453#5 244450453#6 244450453#7 668070773 501772321 244450450#0 244450450#1 338922082 264399255" />
    </vehicle>
    <vehicle depart="35.00" departLane="best" id="29" type="passenger">
        <route edges="441378955#0 201280842#2 201280842#3 287316013#2 287316013#3 287316013#4 407202572#0 407202572#1 407202572#2 329022967#0 329022967#1 329022967#2 329022967#3 329022967#4 329022967#5 199239736#7 199239736#8 199239736#9 199239736#10 199239736#11 199239736#12 199239736#13 199239736#14 199239736#15 199239736#16 226831239#1 226831239#2 226831239#3 226831239#4 189615568#0 189615568#1 506351786#0 506351786#1 506351786#2 506351821 401523526 506351837 306251259#0 306251259#1 306251259#2 306251259#3 306251259#4 407513570#0 407513570#1" />
    </vehicle>
    <vehicle depart="36.00" departLane="best" id="30" type="passenger">
        <route edges="51423103#1 51423103#2 51423103#3 51423103#4 51423103#5 232109219#0 232109219#1 -289004415#3 -289004415#2 -289004415#1 -289004415#0 -407513573#3 -407513573#2 -407513573#1 -407513573#0 289004429#0 289004429#1 289004429#2 289004429#3 289004429#4 289004429#5 468047661 506351807#0 506351807#1 506351807#2 506351807#3 506351807#4 506351807#5 506351807#6 -308976804#11" />
    </vehicle>
    <vehicle depart="38.00" departLane="best" id="31" type="passenger">
        <route edges="52513625#6 52513625#7 52513625#8 324482428#0 324482428#1 324482428#2 324482428#3 324482428#4 324482428#5 197662926#0 197662926#1 197662926#2 495522333#0 495522333#1 495522333#2 495522333#3 495522333#4 374960470#0 374960470#1 243317514#0 243317514#1 243317514#2 243317514#3 243317514#4 23416667 303413197#0 303413197#1 82387315#0 82387315#1 82387315#2 367214998#0 367214998#1 367214998#2 244450487 199239736#0 199239736#1 199239736#2 199239736#3 199239736#4 199239736#5 199239736#6 199239736#7 199239736#8 199239736#9 199239736#10 199239736#11 199239736#12 199239736#13 199239736#14 199239736#15 199239736#16 51392778 407202550#0 289246486#4 5117999#0 5117999#1 5117999#2 5117999#3 5117999#4 5117999#5" />
    </vehicle>
    <vehicle depart="40.00" departLane="best" id="32" type="passenger">
        <route edges="333279724 60787472#0 60787472#1 268564470#0 268564470#1 270025385#0 270025385#1 270025385#2 268564471#0 268564471#1 268564471#2 246651378#0 246651378#1 256186570#0 256186570#1 256186570#2 256186570#3 269502155#0 269502155#1 269502155#2 269502155#3 269502155#4 198725737#2 198725737#3 198725737#4 198725737#5 198725737#6 48794913#0 48794913#1 48794913#2 48794913#3 267659928#0 267659928#1 -182335534#3 -182335534#2 -182335534#1 -182335534#0 -229844763#8 -229844763#7 -229844763#6 -229844763#5 131473129#0 131473129#1 131473129#2 131473109#0 157964878#17 157964878#18 157964878#19 157964878#20 157964878#21" />
    </vehicle>
    <vehicle depart="40.50" departLane="best" id="33" type="passenger">
        <route edges="131473109#1 -131473109#1 -131473109#0 -131473129#2 -131473129#1 -131473129#0 -229844763#4 -229844763#3 -229844763#2 -229844763#1 -229844763#0 -317839331#3 -317839331#2 -317839331#1 -317839331#0 269789739#0 269789739#1 269789739#2 269789739#3 269789739#4 269789739#5 269789739#6 269789739#7 269789739#8 269789739#9 269789739#10 269789739#11 269789739#12 269789739#13 269789739#14 269789739#15 269789739#16 515166738#0 515166738#1 515166738#2 515166738#3 515166738#4 330745380#0 330745380#1 330745380#2 229885657 318254709 384694135#0 384694135#1 264551743 515156300#0 515156300#1 515156300#2 289004429#0 289004429#1 289004429#2 289004429#3 289004429#4 289004429#5 468047661 506351814 506351832 306251261 310677986#0 310677986#1 310677986#2 204211736#1" />
    </vehicle>
    <vehicle depart="41.00" departLane="best" id="34" type="passenger">
        <route edges="334852296#4 312603793#0 312603793#1 312603793#2 312603793#3 289609880#2 -244456576#1 -244456576#0 160279691#0 160279691#1 160279691#2 160279691#3 333279724 244509933 52513625#0 52513625#1 52513625#2 52513625#3 52513625#4 52513625#5 52513625#6 52513625#7 52513625#8 324482428#0 324482428#1 324482428#2 324482428#3 324482428#4 324482428#5 197662926#0 197662926#1 197662926#2 495522333#0 495522333#1 495522333#2 495522333#3 495522333#4 374960470#0 374960470#1 243317514#0 243317514#1 243317514#2 243317514#3 243317514#4 367214988#0 367214988#1 367214988#2 367245164#0 367245164#1 244456578 336634150 52242862 515156319 229885657 318254709 384694135#0 384694135#1 264551743 515156300#0 515156300#1 515156300#2 289004429#0 289004429#1 289004429#2 289004429#3 289004429#4 289004429#5 468047661 506351807#0 506351807#1 506351807#2 506351807#3 506351807#4 506351807#5 506351807#6 468047663 468047662 515156286 515156284#0 515156284#1" />
    </vehicle>
    <vehicle depart="41.50" departLane="best" id="35" type="passenger">
        <route edges="287316013#2 287316013#3 4860359#3 4860359#4 4860359#5 4860359#6 455330015#0 455330015#1 244450535#0 244450535#1 244450535#2 298630661#0 298630661#1 298630661#2 241518672#0 241518672#1 455330016#0 455330016#1 455330016#2 374960471 462808824 264995112#0 264995112#1 462399812 334852289 52513624#0 52513624#1 52513624#2 287327325#0 287327325#1 244450327#0 244450327#1 244450327#2 244450327#3 244450327#4 334852287#0 334852287#1 334852287#2 334852287#3 334852287#4 334852287#5 334852287#6 334852287#7 334852287#8 334852287#9 366116366#0 366116366#1 366116366#2 366116366#3 366116366#4 366116366#5 -334849020#11 -334849020#10 -334849020#9 -334849020#8 -334849020#7 -334849020#6 -284566179 60787464#0 60787464#1 60787464#2 60787464#3 -237121377#6 -237121377#5 -237121377#4 237121377#4" />
    </vehicle>
    <vehicle depart="42.00" departLane="best" id="36" type="passenger">
        <route edges="50823701#0 50823701#1 50823701#2 50823701#3 50823701#4 50823701#5 242632926#2 242632926#3 242632926#4 297240250#4 297240250#5 297240250#6 297240250#7 297240250#8 297240250#9 297240250#10 297240250#11 297240250#12 297240250#13 297240250#14 297240250#15 297240250#16 297240250#17 297240250#18 297240250#19 297240250#20 297240250#21 297240250#22 297339418 238526526#0 238526526#1 238526526#2 238526526#3 506322839#0 506322839#1 506322839#2 506322839#3 506322837#0 506322837#1 506322837#2 506322837#3 506322836#0 506322836#1 506322836#2 506322836#3 506322836#4 506322836#5 318254709 384694135#0 384694135#1 264551743 303647011 515156301 515156304 515156305#0 515156305#1 515156305#2 515156305#3 244450453#0 244450453#1 244450453#2 244450453#3 244450453#4 33679832#0 33679832#1 33679832#2 33679832#3 -33679832#3" />
    </vehicle>
    <vehicle depart="43.50" departLane="best" id="37" type="passenger">
        <route edges="-293207793#4 293207793#4 330804415#0 330804415#1 330804415#2 330804415#3 330804415#4 238208422#0 238208422#1 238208422#2 238208422#3 238208422#4 238208422#5 238208422#6 198414876#0 198414876#1" />
    </vehicle>
    <vehicle depart="44.50" departLane="best" id="38" type="passenger">
        <route edges="198414876#0 -198414876#0 -238208422#6 -238208422#5 -238208422#4 -238208422#3 -238208422#2 -238208422#1 -238208422#0 -238208424#4 -238208424#3 -238208424#2 -238208424#1 -238208424#0 -179000190#1 -179000190#0 22764012#0 22764012#1 268564486#0 268564486#1 303413199#0 303413199#1 303413199#2 303413199#3 303413199#4 303413199#5 303413199#6 303413199#7 303413199#8 303413199#9 462399811 105496781#0 105496781#1 366116371#0 366116371#1 443580489#0 443580489#1 443580489#2 443580489#3 312603791#0 312603791#1 312603791#2 312603791#3 312603791#4 312603791#5 -255431330 -262966701 -255431331#2 -255431331#1 -255431331#0 -334849014 -265002098#1 -265002098#0 -325213929#3 -325213929#2 -325213929#1 -325213929#0 325213932#0 325213932#1 325213932#2 375486274#0 375486274#1 297240254#0 -297240254#0" />
    </vehicle>
    <vehicle depart="46.00" departLane="best" id="39" type="passenger">
        <route edges="506351847#1 51885181#0 51885181#1 51885181#2 51885181#3 455875846#0 455875846#1 506351852#1 506351852#2 506351852#3 506351852#4 506351852#5 506351852#6 506351852#7 506351814 506351832 306251261 310677986#0 310677986#1 310677986#2 310677986#3 189615571#0 189615571#1 189615571#2 189615571#3 407202550#0 289246486#4 5117999#0 5117999#1 5117999#2 5117999#3 5117999#4 5117999#5 5117999#6 5117999#7 5117999#8 5117999#9 5117999#10 5117999#11 5117999#12 5117999#13 5117999#14 244450453#0 244450453#1 244450453#2 244450453#3 244450453#4 244450453#5 244450453#6 244450453#7 668070773 501772321 455330015#0 455330015#1 244450535#0 244450535#1 244450535#2 298630661#0 298630661#1 298630661#2 241518672#0 241518672#1 455330016#0 455330016#1 455330016#2 374960471 462808824 264995112#0 264995112#1 462399812 287316011#0 287316011#1 287316011#2 287316011#3 51919209#0 51919209#1 51919209#2 51919199 245472972#0 245472972#1" />
    </vehicle>
    <vehicle depart="46.50" departLane="best" id="40" type="passenger">
        <route edges="-308987019#5 -308987019#4 -308987019#3 -308987019#2 -308987019#1 -308987019#0 455875846#0 455875846#1 506351852#1 506351852#2 506351852#3 506351852#4 506351852#5 506351852#6 506351852#7 506351814 506351832 306251261 310677986#0 310677986#1 310677986#2 310677986#3 189615571#0 189615571#1 189615571#2 189615571#3 407202550#0 407202550#1 407202550#2 407202553#0 407202553#1 407202553#2 407202553#3 407202553#4 407202553#5 407202553#6 -407202553#6" />
    </vehicle>
    <vehicle depart="48.00" departLane="best" id="41" type="passenger">