<?xml version="1.0" encoding="UTF-8"?>

<!-- generated on 2017年08月24日 (週四) 00時01分41秒 by Netedit Version 0.28.0
<?xml version="1.0" encoding="UTF-8"?>

<configuration xmlns:xsi="http://www.w3.org/2001/XMLSchema-instance" xsi:noNamespaceSchemaLocation="http://sumo.dlr.de/xsd/netedit.exeConfiguration.xsd">

    <input>
        <sumo-net-file value="rivadavia.net.xml"/>
    </input>

    <output>
        <output-file value="rivadavia.net.xml"/>
    </output>

    <processing>
        <no-turnarounds value="true"/>
        <offset.disable-normalization value="true"/>
        <lefthand value="false"/>
        <junctions.corner-detail value="0"/>
    </processing>

    <visualisation>
        <registry-viewport value="true"/>
    </visualisation>

</configuration>
-->

<net version="0.27" xmlns:xsi="http://www.w3.org/2001/XMLSchema-instance" xsi:noNamespaceSchemaLocation="http://sumo.dlr.de/xsd/net_file.xsd">

    <location netOffset="-563030.95,4286736.96" convBoundary="0.00,0.00,1660.40,2209.84" origBoundary="-62.274873,-38.727047,-62.248381,-38.704087" projParameter="+proj=utm +zone=20 +ellps=WGS84 +datum=WGS84 +units=m +no_defs"/>

    <edge id=":1559451853_0" function="internal">
        <lane id=":1559451853_0_0" index="0" disallow="tram rail_urban rail rail_electric ship" speed="20.84" length="7.37" shape="833.26,867.52 834.84,868.83 836.44,869.31 838.04,868.95 839.66,867.77"/>
    </edge>
    <edge id=":1559451853_1" function="internal">
        <lane id=":1559451853_1_0" index="0" disallow="tram rail_urban rail rail_electric ship" speed="20.84" length="14.80" shape="833.26,867.52 835.72,869.83 838.22,871.71 841.06,873.90 844.50,877.12"/>
    </edge>
    <edge id=":1559451853_2" function="internal">
        <lane id=":1559451853_2_0" index="0" disallow="tram rail_urban rail rail_electric ship" speed="27.78" length="13.73" shape="828.87,876.28 831.90,873.56 834.24,872.00 836.59,870.44 839.66,867.77"/>
        <lane id=":1559451853_2_1" index="1" disallow="tram rail_urban rail rail_electric ship" speed="27.78" length="13.73" shape="831.22,878.59 834.24,875.89 836.57,874.33 838.92,872.78 841.98,870.12"/>
        <lane id=":1559451853_2_2" index="2" disallow="tram rail_urban rail rail_electric ship" speed="27.78" length="13.73" shape="833.57,880.91 836.58,878.21 838.91,876.66 841.24,875.12 844.30,872.47"/>
    </edge>
    <edge id=":1559451853_5" function="internal">
        <lane id=":1559451853_5_0" index="0" disallow="tram rail_urban rail rail_electric ship" speed="27.78" length="7.65" shape="835.92,883.22 838.18,881.08 839.97,879.74 841.28,879.18 842.13,879.41"/>
    </edge>
    <edge id=":1559476780_0" function="internal">
        <lane id=":1559476780_0_0" index="0" disallow="tram rail_urban rail rail_electric ship" speed="20.84" length="5.02" shape="390.23,961.87 389.38,962.96 389.08,964.05 389.34,965.15 390.16,966.26"/>
    </edge>
    <edge id=":1559476781_0" function="internal">
        <lane id=":1559476781_0_0" index="0" disallow="tram rail_urban rail rail_electric ship" speed="20.84" length="5.08" shape="488.36,872.34 487.25,871.51 486.14,871.22 485.02,871.49 483.88,872.30"/>
    </edge>
    <edge id=":1559476781_1" function="internal">
        <lane id=":1559476781_1_0" index="0" disallow="tram rail_urban rail rail_electric ship" speed="13.89" length="9.53" shape="488.36,872.34 481.69,865.53"/>
    </edge>
    <edge id=":1559476781_2" function="internal">
        <lane id=":1559476781_2_0" index="0" disallow="tram rail_urban rail rail_electric ship" speed="27.78" length="6.25" shape="488.40,867.95 483.88,872.30"/>
        <lane id=":1559476781_2_1" index="1" disallow="tram rail_urban rail rail_electric ship" speed="27.78" length="6.25" shape="486.10,865.59 481.60,869.92"/>
    </edge>
    <edge id=":1559476781_4" function="internal">
        <lane id=":1559476781_4_0" index="0" disallow="tram rail_urban rail rail_electric ship" speed="20.84" length="5.03" shape="486.10,865.59 484.98,866.40 483.87,866.66 482.77,866.37 481.69,865.53"/>
    </edge>
    <edge id=":1559476783_0" function="internal">
        <lane id=":1559476783_0_0" index="0" disallow="tram rail_urban rail rail_electric ship" speed="22.23" length="5.20" shape="572.62,790.68 571.46,789.81 570.32,789.50 569.17,789.75 568.04,790.57"/>
    </edge>
    <edge id=":1559476783_1" function="internal">
        <lane id=":1559476783_1_0" index="0" disallow="tram rail_urban rail rail_electric ship" speed="16.67" length="9.68" shape="572.62,790.68 565.78,783.82"/>
        <lane id=":1559476783_1_1" index="1" disallow="tram rail_urban rail rail_electric ship" speed="16.67" length="9.68" shape="574.95,788.35 568.12,781.49"/>
    </edge>
    <edge id=":1559476783_3" function="internal">
        <lane id=":1559476783_3_0" index="0" disallow="tram rail_urban rail rail_electric ship" speed="16.67" length="2.41" shape="574.95,788.35 574.66,786.89 574.95,786.01"/>
    </edge>
    <edge id=":1559476783_10" function="internal">
        <lane id=":1559476783_10_0" index="0" speed="16.67" length="2.41" shape="574.95,786.01 575.83,785.72 577.28,786.02"/>
    </edge>
    <edge id=":1559476783_4" function="internal">
        <lane id=":1559476783_4_0" index="0" disallow="tram rail_urban rail rail_electric ship" speed="22.23" length="5.02" shape="579.66,779.30 578.81,780.39 578.52,781.48 578.79,782.58 579.62,783.68"/>
    </edge>
    <edge id=":1559476783_5" function="internal">
        <lane id=":1559476783_5_0" index="0" disallow="tram rail_urban rail rail_electric ship" speed="27.78" length="16.19" shape="579.66,779.30 568.04,790.57"/>
        <lane id=":1559476783_5_1" index="1" disallow="tram rail_urban rail rail_electric ship" speed="27.78" length="16.19" shape="577.36,776.93 565.74,788.20"/>
    </edge>
    <edge id=":1559476783_7" function="internal">
        <lane id=":1559476783_7_0" index="0" disallow="tram rail_urban rail rail_electric ship" speed="22.23" length="11.01" shape="577.36,776.93 574.15,779.76 571.54,781.47 569.53,782.04 568.12,781.49"/>
    </edge>
    <edge id=":1559476783_8" function="internal">
        <lane id=":1559476783_8_0" index="0" disallow="tram rail_urban rail rail_electric ship" speed="16.67" length="9.67" shape="572.80,776.84 579.62,783.68"/>
        <lane id=":1559476783_8_1" index="1" disallow="tram rail_urban rail rail_electric ship" speed="16.67" length="9.67" shape="570.46,779.16 577.28,786.02"/>
    </edge>
    <edge id=":2709777460_0" function="internal">
        <lane id=":2709777460_0_0" index="0" allow="delivery bicycle pedestrian" speed="5.56" length="4.82" shape="1069.65,816.83 1068.20,817.13 1067.32,816.84 1067.02,815.97 1067.31,814.51"/>
    </edge>
    <edge id=":2709777492_0" function="internal">
        <lane id=":2709777492_0_0" index="0" allow="delivery bicycle pedestrian" speed="5.56" length="4.82" shape="1057.65,794.77 1056.19,795.07 1055.31,794.79 1055.01,793.92 1055.29,792.45"/>
    </edge>
    <edge id=":2709777543_0" function="internal">
        <lane id=":2709777543_0_0" index="0" disallow="tram rail_urban rail rail_electric ship" speed="13.89" length="9.50" shape="1110.15,766.74 1116.90,773.43"/>
    </edge>
    <edge id=":2709777543_1" function="internal">
        <lane id=":2709777543_1_0" index="0" allow="delivery bicycle pedestrian" speed="9.73" length="7.85" shape="1110.15,766.74 1112.00,768.85 1113.01,770.67 1113.18,772.20 1112.51,773.45"/>
    </edge>
    <edge id=":2709777543_2" function="internal">
        <lane id=":2709777543_2_0" index="0" disallow="tram rail_urban rail rail_electric ship" speed="9.73" length="7.85" shape="1110.16,771.13 1111.40,770.44 1112.94,770.60 1114.77,771.59 1116.90,773.43"/>
    </edge>
    <edge id=":2709777543_3" function="internal">
        <lane id=":2709777543_3_0" index="0" allow="delivery bicycle pedestrian" speed="5.56" length="4.82" shape="1110.16,771.13 1111.62,770.83 1112.50,771.12 1112.79,771.99 1112.51,773.45"/>
    </edge>
    <edge id=":2709777561_0" function="internal">
        <lane id=":2709777561_0_0" index="0" disallow="tram rail_urban rail rail_electric ship" speed="13.89" length="9.50" shape="1092.94,749.69 1099.69,756.38"/>
    </edge>
    <edge id=":2709777561_1" function="internal">
        <lane id=":2709777561_1_0" index="0" allow="delivery bicycle pedestrian" speed="9.73" length="7.85" shape="1092.94,749.69 1094.79,751.80 1095.80,753.62 1095.97,755.16 1095.31,756.41"/>
    </edge>
    <edge id=":2709777561_2" function="internal">
        <lane id=":2709777561_2_0" index="0" disallow="tram rail_urban rail rail_electric ship" speed="9.73" length="7.86" shape="1092.95,754.10 1094.19,753.40 1095.73,753.55 1097.56,754.54 1099.69,756.38"/>
    </edge>
    <edge id=":2709777561_3" function="internal">
        <lane id=":2709777561_3_0" index="0" allow="delivery bicycle pedestrian" speed="5.56" length="4.82" shape="1092.95,754.10 1094.41,753.79 1095.28,754.08 1095.58,754.95 1095.31,756.41"/>
    </edge>
    <edge id=":2709914228_0" function="internal">
        <lane id=":2709914228_0_0" index="0" disallow="tram rail_urban rail rail_electric ship" speed="27.78" length="6.29" shape="1291.23,1359.86 1289.78,1360.58 1288.86,1361.24 1288.15,1362.13 1287.31,1363.53"/>
        <lane id=":2709914228_0_1" index="1" disallow="tram rail_urban rail rail_electric ship" speed="27.78" length="6.29" shape="1291.23,1359.86 1284.46,1361.86"/>
    </edge>
    <edge id=":2709914228_2" function="internal">
        <lane id=":2709914228_2_0" index="0" disallow="tram rail_urban rail rail_electric ship" speed="27.78" length="13.60" shape="1291.23,1359.86 1286.44,1361.35 1282.85,1360.87 1280.47,1358.44 1279.28,1354.04"/>
        <lane id=":2709914228_2_1" index="1" disallow="tram rail_urban rail rail_electric ship" speed="27.78" length="13.60" shape="1291.17,1357.91 1282.38,1352.00"/>
    </edge>
    <edge id=":2709914228_4" function="internal">
        <lane id=":2709914228_4_0" index="0" disallow="tram rail_urban rail rail_electric ship" speed="27.78" length="6.59" shape="1278.76,1358.54 1279.36,1357.33 1279.54,1356.40 1279.46,1355.42 1279.28,1354.04"/>
        <lane id=":2709914228_4_1" index="1" disallow="tram rail_urban rail rail_electric ship" speed="27.78" length="6.59" shape="1281.61,1360.20 1282.67,1357.99 1282.94,1356.30 1282.74,1354.51 1282.38,1352.00"/>
    </edge>
    <edge id=":2709914228_6" function="internal">
        <lane id=":2709914228_6_0" index="0" disallow="tram rail_urban rail rail_electric ship" speed="27.78" length="3.17" shape="1281.61,1360.20 1282.95,1359.55 1283.87,1359.61 1284.28,1360.25"/>
    </edge>
    <edge id=":2709914228_7" function="internal">
        <lane id=":2709914228_7_0" index="0" speed="27.78" length="1.65" shape="1284.28,1360.25 1284.37,1360.38 1284.46,1361.86"/>
    </edge>
    <edge id=":2709914233_0" function="internal">
        <lane id=":2709914233_0_0" index="0" disallow="tram rail_urban rail rail_electric ship" speed="20.84" length="10.12" shape="1293.96,1346.79 1295.77,1349.18 1296.72,1351.03 1297.69,1352.87 1299.54,1355.18"/>
    </edge>
    <edge id=":2709914233_1" function="internal">
        <lane id=":2709914233_1_0" index="0" disallow="tram rail_urban rail rail_electric ship" speed="27.78" length="8.98" shape="1293.96,1346.79 1295.49,1349.04 1296.14,1351.38 1295.90,1353.82 1294.78,1356.34"/>
        <lane id=":2709914233_1_1" index="1" disallow="tram rail_urban rail rail_electric ship" speed="27.78" length="8.98" shape="1291.50,1348.99 1292.34,1350.40 1292.55,1352.05 1292.13,1353.94 1291.08,1356.06"/>
    </edge>
    <edge id=":2721256048_0" function="internal">
        <lane id=":2721256048_0_0" index="0" disallow="tram rail_urban rail rail_electric ship" speed="13.89" length="5.02" shape="905.23,1487.22 904.42,1488.33 904.16,1489.44 904.46,1490.53 905.30,1491.61"/>
    </edge>
    <edge id=":2721256048_1" function="internal">
        <lane id=":2721256048_1_0" index="0" disallow="tram rail_urban rail rail_electric ship" speed="13.89" length="6.21" shape="905.23,1487.22 900.90,1491.67"/>
    </edge>
    <edge id=":2721256048_2" function="internal">
        <lane id=":2721256048_2_0" index="0" disallow="tram rail_urban rail rail_electric ship" speed="13.89" length="6.23" shape="900.85,1487.26 905.30,1491.61"/>
    </edge>
    <edge id=":2721256048_3" function="internal">
        <lane id=":2721256048_3_0" index="0" disallow="tram rail_urban rail rail_electric ship" speed="13.89" length="5.02" shape="900.85,1487.26 901.68,1488.36 901.97,1489.46 901.71,1490.56 900.90,1491.67"/>
    </edge>
    <edge id=":2884300181_0" function="internal">
        <lane id=":2884300181_0_0" index="0" disallow="tram rail_urban rail rail_electric ship" speed="13.89" length="5.01" shape="1409.23,1175.55 1412.81,1172.04"/>
    </edge>
    <edge id=":2884300181_1" function="internal">
        <lane id=":2884300181_1_0" index="0" allow="bicycle pedestrian" speed="8.34" length="4.54" width="2.00" shape="1409.23,1175.55 1410.15,1174.92 1411.11,1174.78 1412.13,1175.15 1413.18,1176.02"/>
    </edge>
    <edge id=":296637196_0" function="internal">
        <lane id=":296637196_0_0" index="0" disallow="tram rail_urban rail rail_electric ship" speed="13.89" length="5.05" shape="884.56,1113.91 883.80,1115.01 883.56,1116.13 883.85,1117.26 884.66,1118.41"/>
    </edge>
    <edge id=":296637196_1" function="internal">
        <lane id=":296637196_1_0" index="0" disallow="tram rail_urban rail rail_electric ship" speed="13.89" length="6.14" shape="884.56,1113.91 880.27,1118.31"/>
    </edge>
    <edge id=":296637207_0" function="internal">
        <lane id=":296637207_0_0" index="0" disallow="tram rail_urban rail rail_electric ship" speed="20.84" length="5.06" shape="806.09,1196.34 804.99,1195.48 803.89,1195.19 802.80,1195.49 801.70,1196.36"/>
    </edge>
    <edge id=":296637207_1" function="internal">
        <lane id=":296637207_1_0" index="0" disallow="tram rail_urban rail rail_electric ship" speed="27.78" length="8.18" shape="806.09,1196.34 800.40,1190.49"/>
        <lane id=":296637207_1_1" index="1" disallow="tram rail_urban rail rail_electric ship" speed="27.78" length="8.18" shape="808.47,1194.05 802.75,1188.17"/>
    </edge>
    <edge id=":296637207_3" function="internal">
        <lane id=":296637207_3_0" index="0" disallow="tram rail_urban rail rail_electric ship" speed="13.89" length="10.50" shape="809.04,1188.85 801.70,1196.36"/>
    </edge>
    <edge id=":296637207_4" function="internal">
        <lane id=":296637207_4_0" index="0" disallow="tram rail_urban rail rail_electric ship" speed="20.84" length="2.62" shape="809.04,1188.85 807.58,1189.87 806.75,1189.99"/>
    </edge>
    <edge id=":296637207_5" function="internal">
        <lane id=":296637207_5_0" index="0" speed="20.84" length="4.58" shape="806.75,1189.99 806.04,1190.10 804.43,1189.53 802.75,1188.17"/>
    </edge>
    <edge id=":296637218_0" function="internal">
        <lane id=":296637218_0_0" index="0" disallow="tram rail_urban rail rail_electric ship" speed="13.89" length="5.14" shape="712.81,1290.56 712.00,1291.70 711.73,1292.84 712.00,1293.98 712.81,1295.11"/>
    </edge>
    <edge id=":296637218_1" function="internal">
        <lane id=":296637218_1_0" index="0" disallow="tram rail_urban rail rail_electric ship" speed="13.89" length="6.28" shape="712.81,1290.56 708.43,1295.06"/>
    </edge>
    <edge id=":296637218_2" function="internal">
        <lane id=":296637218_2_0" index="0" disallow="tram rail_urban rail rail_electric ship" speed="13.89" length="6.28" shape="708.43,1290.62 712.81,1295.11"/>
    </edge>
    <edge id=":296637218_3" function="internal">
        <lane id=":296637218_3_0" index="0" disallow="tram rail_urban rail rail_electric ship" speed="13.89" length="5.06" shape="708.43,1290.62 709.26,1291.73 709.54,1292.84 709.26,1293.95 708.43,1295.06"/>
    </edge>
    <edge id=":296637225_0" function="internal">
        <lane id=":296637225_0_0" index="0" disallow="tram rail_urban rail rail_electric ship" speed="13.89" length="5.04" shape="614.81,1392.45 613.72,1391.59 612.63,1391.29 611.53,1391.57 610.43,1392.41"/>
    </edge>
    <edge id=":296637225_1" function="internal">
        <lane id=":296637225_1_0" index="0" disallow="tram rail_urban rail rail_electric ship" speed="13.89" length="6.29" shape="614.81,1392.45 610.48,1387.89"/>
    </edge>
    <edge id=":296637225_2" function="internal">
        <lane id=":296637225_2_0" index="0" disallow="tram rail_urban rail rail_electric ship" speed="13.89" length="6.29" shape="614.86,1387.95 610.43,1392.41"/>
    </edge>
    <edge id=":296637225_3" function="internal">
        <lane id=":296637225_3_0" index="0" disallow="tram rail_urban rail rail_electric ship" speed="13.89" length="5.02" shape="614.86,1387.95 613.76,1388.78 612.66,1389.04 611.56,1388.75 610.48,1387.89"/>
    </edge>
    <edge id=":296637233_0" function="internal">
        <lane id=":296637233_0_0" index="0" disallow="tram rail_urban rail rail_electric ship" speed="13.89" length="5.12" shape="518.35,1485.82 517.53,1486.94 517.25,1488.07 517.52,1489.20 518.34,1490.34"/>
    </edge>
    <edge id=":296637233_1" function="internal">
        <lane id=":296637233_1_0" index="0" disallow="tram rail_urban rail rail_electric ship" speed="13.89" length="6.29" shape="518.35,1485.82 513.95,1490.32"/>
    </edge>
    <edge id=":296637233_2" function="internal">
        <lane id=":296637233_2_0" index="0" disallow="tram rail_urban rail rail_electric ship" speed="13.89" length="6.29" shape="513.97,1485.82 518.34,1490.34"/>
    </edge>
    <edge id=":296637233_3" function="internal">
        <lane id=":296637233_3_0" index="0" disallow="tram rail_urban rail rail_electric ship" speed="13.89" length="5.10" shape="513.97,1485.82 514.79,1486.94 515.06,1488.06 514.78,1489.19 513.95,1490.32"/>
    </edge>
    <edge id=":296637256_0" function="internal">
        <lane id=":296637256_0_0" index="0" disallow="tram rail_urban rail rail_electric ship" speed="22.23" length="9.50" shape="748.93,953.00 750.03,953.83 751.13,954.10 752.22,953.82 753.31,952.98"/>
        <lane id=":296637256_0_1" index="1" disallow="tram rail_urban rail rail_electric ship" speed="22.23" length="9.50" shape="746.60,955.34 748.87,957.04 751.14,957.60 753.41,957.02 755.67,955.30"/>
        <lane id=":296637256_0_2" index="2" disallow="tram rail_urban rail rail_electric ship" speed="22.23" length="9.50" shape="746.60,955.34 749.89,958.06 752.90,959.35 755.60,959.20 758.02,957.61"/>
    </edge>
    <edge id=":296637256_3" function="internal">
        <lane id=":296637256_3_0" index="0" disallow="tram rail_urban rail rail_electric ship" speed="16.67" length="2.86" shape="746.60,955.34 746.89,956.79 746.60,957.67 746.17,957.81"/>
    </edge>
    <edge id=":296637256_10" function="internal">
        <lane id=":296637256_10_0" index="0" speed="16.67" length="1.96" shape="746.17,957.81 745.72,957.96 744.26,957.67"/>
    </edge>
    <edge id=":296637256_4" function="internal">
        <lane id=":296637256_4_0" index="0" disallow="tram rail_urban rail rail_electric ship" speed="22.23" length="6.45" shape="741.94,964.41 742.77,963.31 743.04,962.21 742.76,961.11 741.93,960.00"/>
        <lane id=":296637256_4_1" index="1" disallow="tram rail_urban rail rail_electric ship" speed="22.23" length="6.45" shape="741.94,964.41 743.79,962.29 744.79,960.47 744.95,958.93 744.26,957.67"/>
    </edge>
    <edge id=":296637256_6" function="internal">
        <lane id=":296637256_6_0" index="0" disallow="tram rail_urban rail rail_electric ship" speed="27.78" length="16.18" shape="741.94,964.41 753.31,952.98"/>
        <lane id=":296637256_6_1" index="1" disallow="tram rail_urban rail rail_electric ship" speed="27.78" length="16.18" shape="744.27,966.75 755.67,955.30"/>
        <lane id=":296637256_6_2" index="2" disallow="tram rail_urban rail rail_electric ship" speed="27.78" length="16.18" shape="746.59,969.09 758.02,957.61"/>
        <lane id=":296637256_6_3" index="3" disallow="tram rail_urban rail rail_electric ship" speed="27.78" length="16.18" shape="748.92,971.43 760.37,959.93"/>
    </edge>
    <edge id=":296637281_0" function="internal">
        <lane id=":296637281_0_0" index="0" disallow="tram rail_urban rail rail_electric ship" speed="13.89" length="9.56" shape="473.21,1243.85 466.63,1236.91"/>
    </edge>
    <edge id=":296637281_1" function="internal">
        <lane id=":296637281_1_0" index="0" disallow="tram rail_urban rail rail_electric ship" speed="20.84" length="5.12" shape="473.21,1243.85 472.41,1242.72 472.17,1241.59 472.47,1240.46 473.34,1239.34"/>
    </edge>
    <edge id=":296637281_2" function="internal">
        <lane id=":296637281_2_0" index="0" disallow="tram rail_urban rail rail_electric ship" speed="20.84" length="5.12" shape="466.52,1241.42 467.37,1240.30 467.68,1239.18 467.43,1238.05 466.63,1236.91"/>
    </edge>
    <edge id=":296637281_3" function="internal">
        <lane id=":296637281_3_0" index="0" disallow="tram rail_urban rail rail_electric ship" speed="27.78" length="6.32" shape="466.52,1241.42 471.02,1236.99"/>
        <lane id=":296637281_3_1" index="1" disallow="tram rail_urban rail rail_electric ship" speed="27.78" length="6.32" shape="468.83,1243.77 473.34,1239.34"/>
    </edge>
    <edge id=":296637288_0" function="internal">
        <lane id=":296637288_0_0" index="0" disallow="tram rail_urban rail rail_electric ship" speed="20.84" length="5.02" shape="561.61,1143.16 562.69,1144.01 563.78,1144.30 564.89,1144.04 566.00,1143.23"/>
    </edge>
    <edge id=":296637288_1" function="internal">
        <lane id=":296637288_1_0" index="0" disallow="tram rail_urban rail rail_electric ship" speed="13.89" length="9.53" shape="561.61,1143.16 568.27,1149.98"/>
    </edge>
    <edge id=":296637288_2" function="internal">
        <lane id=":296637288_2_0" index="0" disallow="tram rail_urban rail rail_electric ship" speed="27.78" length="6.23" shape="561.55,1147.59 566.00,1143.23"/>
        <lane id=":296637288_2_1" index="1" disallow="tram rail_urban rail rail_electric ship" speed="27.78" length="6.23" shape="563.86,1149.94 568.30,1145.59"/>
    </edge>
    <edge id=":296637288_4" function="internal">
        <lane id=":296637288_4_0" index="0" disallow="tram rail_urban rail rail_electric ship" speed="20.84" length="5.02" shape="563.86,1149.94 564.96,1149.13 566.07,1148.86 567.17,1149.15 568.27,1149.98"/>
    </edge>
    <edge id=":296637299_0" function="internal">
        <lane id=":296637299_0_0" index="0" disallow="tram rail_urban rail rail_electric ship" speed="20.84" length="13.73" shape="667.16,1054.99 664.31,1051.74 662.48,1049.07 660.89,1046.65 658.78,1044.15"/>
    </edge>
    <edge id=":296637299_1" function="internal">
        <lane id=":296637299_1_0" index="0" disallow="tram rail_urban rail rail_electric ship" speed="27.78" length="6.03" shape="669.51,1052.67 668.70,1051.06 668.88,1049.96"/>
        <lane id=":296637299_1_1" index="1" disallow="tram rail_urban rail rail_electric ship" speed="27.78" length="6.03" shape="669.51,1052.67 670.04,1051.40 671.94,1049.24 674.11,1047.08 675.43,1045.81"/>
    </edge>
    <edge id=":296637299_7" function="internal">
        <lane id=":296637299_7_0" index="0" speed="27.78" length="7.85" shape="668.88,1049.96 669.03,1048.99 670.49,1046.47 673.09,1043.49"/>
    </edge>
    <edge id=":296637299_3" function="internal">
        <lane id=":296637299_3_0" index="0" disallow="tram rail_urban rail rail_electric ship" speed="20.84" length="9.00" shape="659.91,1052.00 661.11,1050.28 661.32,1048.39 660.54,1046.35 658.78,1044.15"/>
    </edge>
    <edge id=":296637299_4" function="internal">
        <lane id=":296637299_4_0" index="0" disallow="tram rail_urban rail rail_electric ship" speed="27.78" length="15.66" shape="659.91,1052.00 662.83,1048.43 664.19,1045.47 665.53,1042.49 668.39,1038.86"/>
        <lane id=":296637299_4_1" index="1" disallow="tram rail_urban rail rail_electric ship" speed="27.78" length="15.66" shape="662.21,1054.37 665.14,1050.78 666.52,1047.81 667.87,1044.82 670.74,1041.17"/>
        <lane id=":296637299_4_2" index="2" disallow="tram rail_urban rail rail_electric ship" speed="27.78" length="15.66" shape="662.21,1054.37 673.09,1043.49"/>
    </edge>
    <edge id=":296637337_0" function="internal">
        <lane id=":296637337_0_0" index="0" disallow="tram rail_urban rail rail_electric ship" speed="15.28" length="5.52" shape="647.54,865.68 646.25,864.67 645.02,864.26 643.84,864.45 642.71,865.24"/>
    </edge>
    <edge id=":296637337_1" function="internal">
        <lane id=":296637337_1_0" index="0" disallow="tram rail_urban rail rail_electric ship" speed="16.67" length="7.11" shape="647.54,865.68 642.51,860.65"/>
        <lane id=":296637337_1_1" index="1" disallow="tram rail_urban rail rail_electric ship" speed="16.67" length="7.11" shape="649.88,863.35 644.85,858.32"/>
    </edge>
    <edge id=":296637337_3" function="internal">
        <lane id=":296637337_3_0" index="0" disallow="tram rail_urban rail rail_electric ship" speed="16.67" length="2.41" shape="649.88,863.35 649.58,861.89 649.87,861.01"/>
    </edge>
    <edge id=":296637337_8" function="internal">
        <lane id=":296637337_8_0" index="0" speed="16.67" length="2.41" shape="649.87,861.01 650.75,860.72 652.21,861.01"/>
    </edge>
    <edge id=":296637337_4" function="internal">
        <lane id=":296637337_4_0" index="0" disallow="tram rail_urban rail rail_electric ship" speed="16.67" length="7.10" shape="649.52,853.66 654.54,858.68"/>
        <lane id=":296637337_4_1" index="1" disallow="tram rail_urban rail rail_electric ship" speed="16.67" length="7.10" shape="647.18,855.99 652.21,861.01"/>
    </edge>
    <edge id=":296637337_6" function="internal">
        <lane id=":296637337_6_0" index="0" disallow="tram rail_urban rail rail_electric ship" speed="15.28" length="2.87" shape="647.18,855.99 647.81,857.47 647.48,858.69"/>
    </edge>
    <edge id=":296637337_7" function="internal">
        <lane id=":296637337_7_0" index="0" disallow="tram rail_urban rail rail_electric ship" speed="16.67" length="2.41" shape="647.18,855.99 647.47,857.45 647.18,858.32"/>
    </edge>
    <edge id=":296637337_9" function="internal">
        <lane id=":296637337_9_0" index="0" speed="15.28" length="8.19" shape="647.48,858.69 647.27,859.51 645.57,862.10 642.71,865.24"/>
    </edge>
    <edge id=":296637337_10" function="internal">
        <lane id=":296637337_10_0" index="0" speed="16.67" length="2.41" shape="647.18,858.32 646.31,858.61 644.85,858.32"/>
    </edge>
    <edge id=":296637359_0" function="internal">
        <lane id=":296637359_0_0" index="0" disallow="tram rail_urban rail rail_electric ship" speed="16.67" length="6.38" shape="474.02,691.57 469.51,687.07"/>
        <lane id=":296637359_0_1" index="1" disallow="tram rail_urban rail rail_electric ship" speed="16.67" length="6.38" shape="476.36,689.24 471.83,684.73"/>
    </edge>
    <edge id=":296637359_2" function="internal">
        <lane id=":296637359_2_0" index="0" disallow="tram rail_urban rail rail_electric ship" speed="15.28" length="5.26" shape="476.47,680.04 477.64,680.91 478.80,681.24 479.96,681.00 481.12,680.20"/>
    </edge>
    <edge id=":296637359_3" function="internal">
        <lane id=":296637359_3_0" index="0" disallow="tram rail_urban rail rail_electric ship" speed="16.67" length="6.43" shape="476.47,680.04 481.04,684.59"/>
        <lane id=":296637359_3_1" index="1" disallow="tram rail_urban rail rail_electric ship" speed="16.67" length="6.43" shape="474.15,682.38 478.70,686.92"/>
    </edge>
    <edge id=":296637359_5" function="internal">
        <lane id=":296637359_5_0" index="0" disallow="tram rail_urban rail rail_electric ship" speed="16.67" length="2.41" shape="474.15,682.38 474.45,683.84 474.16,684.71"/>
    </edge>
    <edge id=":296637359_9" function="internal">
        <lane id=":296637359_9_0" index="0" speed="16.67" length="2.41" shape="474.16,684.71 473.29,685.01 471.83,684.73"/>
    </edge>
    <edge id=":296637359_6" function="internal">
        <lane id=":296637359_6_0" index="0" disallow="tram rail_urban rail rail_electric ship" speed="15.28" length="5.01" shape="469.52,691.47 470.34,690.36 470.61,689.26 470.34,688.16 469.51,687.07"/>
    </edge>
    <edge id=":296637359_7" function="internal">
        <lane id=":296637359_7_0" index="0" disallow="tram rail_urban rail rail_electric ship" speed="13.89" length="16.17" shape="469.52,691.47 481.12,680.20"/>
    </edge>
    <edge id=":296637359_8" function="internal">
        <lane id=":296637359_8_0" index="0" disallow="tram rail_urban rail rail_electric ship" speed="15.28" length="11.01" shape="469.52,691.47 472.66,688.59 475.23,686.87 477.24,686.32 478.70,686.92"/>
    </edge>
    <edge id=":296637430_0" function="internal">
        <lane id=":296637430_0_0" index="0" disallow="tram rail_urban rail rail_electric ship" speed="13.89" length="12.88" shape="941.81,780.63 932.93,771.30"/>
    </edge>
    <edge id=":296637430_1" function="internal">
        <lane id=":296637430_1_0" index="0" disallow="tram rail_urban rail rail_electric ship" speed="20.84" length="6.66" shape="941.81,780.63 940.02,778.45 939.06,776.56 938.94,774.96 939.66,773.65"/>
        <lane id=":296637430_1_1" index="1" disallow="tram rail_urban rail rail_electric ship" speed="20.84" length="6.66" shape="941.81,780.63 941.02,779.49 940.78,778.33 941.12,777.16 942.01,775.97"/>
    </edge>
    <edge id=":296637430_3" function="internal">
        <lane id=":296637430_3_0" index="0" disallow="tram rail_urban rail rail_electric ship" speed="20.84" length="5.19" shape="932.79,775.86 933.67,774.72 933.98,773.58 933.74,772.44 932.93,771.30"/>
    </edge>
    <edge id=":296637430_4" function="internal">
        <lane id=":296637430_4_0" index="0" disallow="tram rail_urban rail rail_electric ship" speed="27.78" length="6.45" shape="932.79,775.86 937.31,771.34"/>