<?xml version="1.0"?>
<!-- generated on 2019-08-31 23:08:34.559573 by $Id: randomTrips.py 23999 2017-04-21 09:04:47Z behrisch $
  options: -n map/kaohsiung.net.xml -r map.rou.xml -e 500 -p 0.2 <doubleminus>trip-attributes=departLane="best" type="passenger" <doubleminus>additional-file type.add.xml
-->
<routes xmlns:xsi="http://www.w3.org/2001/XMLSchema-instance" xsi:noNamespaceSchemaLocation="http://sumo.dlr.de/xsd/routes_file.xsd">
    <trip id="0" depart="0.00" from="296215789#0" to="270585771#1" departLane="best" type="passenger"/>
    <trip id="1" depart="0.20" from="-257245119#0" to="-296980004#4" departLane="best" type="passenger"/>
    <trip id="2" depart="0.40" from="-232496355#3" to="385202255#3" departLane="best" type="passenger"/>
    <trip id="3" depart="0.60" from="296980004#3" to="92041049#0" departLane="best" type="passenger"/>
    <trip id="4" depart="0.80" from="232496355#6" to="383026340#5" departLane="best" type="passenger"/>
    <trip id="5" depart="1.00" from="296215789#5" to="-46142799#3" departLane="best" type="passenger"/>
    <trip id="6" depart="1.20" from="-270268067#0" to="330465827#0" departLane="best" type="passenger"/>
    <trip id="7" depart="1.40" from="254607165#1" to="-94059895#1" departLane="best" type="passenger"/>
    <trip id="8" depart="1.60" from="418972773#0" to="23978594#3" departLane="best" type="passenger"/>
    <trip id="9" depart="1.80" from="272200694#2" to="-296980007#1" departLane="best" type="passenger"/>
    <trip id="10" depart="2.00" from="92071741#3" to="46142799#0" departLane="best" type="passenger"/>
    <trip id="11" depart="2.20" from="401959566#1" to="-184383578#0" departLane="best" type="passenger"/>
    <trip id="12" depart="2.40" from="330465827#2" to="88867313#1" departLane="best" type="passenger"/>
    <trip id="13" depart="2.60" from="296215789#3" to="92071655#1" departLane="best" type="passenger"/>
    <trip id="14" depart="2.80" from="-184383639#2" to="92071741#0" departLane="best" type="passenger"/>
    <trip id="15" depart="3.00" from="88867317#1" to="23683304#1" departLane="best" type="passenger"/>
    <trip id="16" depart="3.20" from="-270268067#0" to="383026340#4" departLane="best" type="passenger"/>
    <trip id="17" depart="3.40" from="-385202259#1" to="184383587#5" departLane="best" type="passenger"/>
    <trip id="18" depart="3.60" from="23582544#6" to="-314546701" departLane="best" type="passenger"/>
    <trip id="19" depart="3.80" from="-88867300#0" to="23582544#0" departLane="best" type="passenger"/>
    <trip id="20" depart="4.00" from="184383588#3" to="88867311" departLane="best" type="passenger"/>
    <trip id="21" depart="4.20" from="-232496355#6" to="-386281939#1" departLane="best" type="passenger"/>
    <trip id="22" depart="4.40" from="383026348#3" to="-23582546#0" departLane="best" type="passenger"/>
    <trip id="23" depart="4.60" from="23582546#2" to="92041049#5" departLane="best" type="passenger"/>
    <trip id="24" depart="4.80" from="232496355#2" to="-184383558#5" departLane="best" type="passenger"/>
    <trip id="25" depart="5.00" from="94059895#3" to="436566854#1" departLane="best" type="passenger"/>
    <trip id="26" depart="5.20" from="23582544#5" to="46142799#2" departLane="best" type="passenger"/>
    <trip id="27" depart="5.40" from="184383587#2" to="23582544#2" departLane="best" type="passenger"/>
    <trip id="28" depart="5.60" from="92071655#0" to="-184383636#1" departLane="best" type="passenger"/>
    <trip id="29" depart="5.80" from="35983484#1" to="-88867300#1" departLane="best" type="passenger"/>
    <trip id="30" depart="6.00" from="184383587#0" to="-35164004#1" departLane="best" type="passenger"/>
    <trip id="31" depart="6.20" from="25568481#1" to="35164004#3" departLane="best" type="passenger"/>
    <trip id="32" depart="6.40" from="296980007#1" to="232496368#4" departLane="best" type="passenger"/>
    <trip id="33" depart="6.60" from="270268067#1" to="436566854#0" departLane="best" type="passenger"/>
    <trip id="34" depart="6.80" from="-296980004#5" to="-184383558#6" departLane="best" type="passenger"/>
    <trip id="35" depart="7.00" from="385202259#0" to="-184383636#1" departLane="best" type="passenger"/>
    <trip id="36" depart="7.20" from="23582546#4" to="385202258#0" departLane="best" type="passenger"/>
    <trip id="37" depart="7.40" from="520932346#0" to="296213172#2" departLane="best" type="passenger"/>
    <trip id="38" depart="7.60" from="-25568481#3" to="383026340#1" departLane="best" type="passenger"/>
    <trip id="39" depart="7.80" from="-46142799#9" to="-35164004#4" departLane="best" type="passenger"/>
    <trip id="40" depart="8.00" from="-93331250#1" to="-184383576#7" departLane="best" type="passenger"/>
    <trip id="41" depart="8.20" from="254607166#0" to="-23582546#5" departLane="best" type="passenger"/>
    <trip id="42" depart="8.40" from="232496355#1" to="184383587#6" departLane="best" type="passenger"/>
    <trip id="43" depart="8.60" from="272200694#0" to="88867314#4" departLane="best" type="passenger"/>
    <trip id="44" depart="8.80" from="272200697#1" to="-296980003#1" departLane="best" type="passenger"/>
    <trip id="45" depart="9.00" from="-23582546#5" to="-386281939#3" departLane="best" type="passenger"/>
    <trip id="46" depart="9.20" from="184383576#3" to="296980003#1" departLane="best" type="passenger"/>
    <trip id="47" depart="9.40" from="296980001#1" to="272200694#7" departLane="best" type="passenger"/>
    <trip id="48" depart="9.60" from="-184383576#0" to="-23582546#4" departLane="best" type="passenger"/>
    <trip id="49" depart="9.80" from="-184383636#0" to="93331250#1" departLane="best" type="passenger"/>
    <trip id="50" depart="10.00" from="-254607168" to="380327966#1" departLane="best" type="passenger"/>
    <trip id="51" depart="10.20" from="92041049#3" to="385202257" departLane="best" type="passenger"/>
    <trip id="52" depart="10.40" from="184383576#1" to="232496368#0" departLane="best" type="passenger"/>
    <trip id="53" depart="10.60" from="92041049#7" to="254607165#1" departLane="best" type="passenger"/>
    <trip id="54" depart="10.80" from="-272200697#0" to="385202255#2" departLane="best" type="passenger"/>
    <trip id="55" depart="11.00" from="46142799#5" to="255537686#5" departLane="best" type="passenger"/>
    <trip id="56" depart="11.20" from="92041049#0" to="-71928163#0" departLane="best" type="passenger"/>
    <trip id="57" depart="11.40" from="25192832" to="-184383576#6" departLane="best" type="passenger"/>
    <trip id="58" depart="11.60" from="-232496368#1" to="418972774#1" departLane="best" type="passenger"/>
    <trip id="59" depart="11.80" from="385202255#2" to="-232496368#3" departLane="best" type="passenger"/>
    <trip id="60" depart="12.00" from="25568481#4" to="-51005978#0" departLane="best" type="passenger"/>
    <trip id="61" depart="12.20" from="52254946#1" to="88867325#0" departLane="best" type="passenger"/>
    <trip id="62" depart="12.40" from="-88867322#0" to="23582544#6" departLane="best" type="passenger"/>
    <trip id="63" depart="12.60" from="330465828#6" to="-232496362#1" departLane="best" type="passenger"/>
    <trip id="64" depart="12.80" from="23978594#1" to="257245112#1" departLane="best" type="passenger"/>
    <trip id="65" depart="13.00" from="35164004#1" to="23582546#7" departLane="best" type="passenger"/>
    <trip id="66" depart="13.20" from="-51005979#0" to="385202259#1" departLane="best" type="passenger"/>
    <trip id="67" depart="13.40" from="-401959564#4" to="418972773#0" departLane="best" type="passenger"/>
    <trip id="68" depart="13.60" from="-92041049#3" to="-88867313#2" departLane="best" type="passenger"/>
    <trip id="69" depart="13.80" from="232496362#1" to="232496355#4" departLane="best" type="passenger"/>
    <trip id="70" depart="14.00" from="23978594#2" to="-23582544#3" departLane="best" type="passenger"/>
    <trip id="71" depart="14.20" from="92041158" to="-296980004#4" departLane="best" type="passenger"/>
    <trip id="72" depart="14.40" from="385202257" to="-25568481#2" departLane="best" type="passenger"/>
    <trip id="73" depart="14.60" from="-42680532#1" to="232496368#6" departLane="best" type="passenger"/>
    <trip id="74" depart="14.80" from="232496355#2" to="272200697#1" departLane="best" type="passenger"/>
    <trip id="75" depart="15.00" from="385202258#1" to="-386281939#2" departLane="best" type="passenger"/>
    <trip id="76" depart="15.20" from="-401959567#1" to="-272200697#2" departLane="best" type="passenger"/>
    <trip id="77" depart="15.40" from="-92041049#3" to="88867322#6" departLane="best" type="passenger"/>
    <trip id="78" depart="15.60" from="52254946#1" to="-94059895#1" departLane="best" type="passenger"/>
    <trip id="79" depart="15.80" from="-221608654#1" to="46142799#4" departLane="best" type="passenger"/>
    <trip id="80" depart="16.00" from="-46142799#3" to="-88867327#0" departLane="best" type="passenger"/>
    <trip id="81" depart="16.20" from="-51005978#2" to="92071741#1" departLane="best" type="passenger"/>
    <trip id="82" depart="16.40" from="88867313#2" to="184383586" departLane="best" type="passenger"/>
    <trip id="83" depart="16.60" from="-92041158" to="52254946#2" departLane="best" type="passenger"/>
    <trip id="84" depart="16.80" from="30074977" to="380327966#2" departLane="best" type="passenger"/>
    <trip id="85" depart="17.00" from="-46142799#8" to="-330465830#0" departLane="best" type="passenger"/>
    <trip id="86" depart="17.20" from="386281940#0" to="-88867317#1" departLane="best" type="passenger"/>
    <trip id="87" depart="17.40" from="385202255#3" to="46142799#4" departLane="best" type="passenger"/>
    <trip id="88" depart="17.60" from="-232496368#10" to="-403863073" departLane="best" type="passenger"/>
    <trip id="89" depart="17.80" from="35164004#3" to="232501700#3" departLane="best" type="passenger"/>
    <trip id="90" depart="18.00" from="330465828#1" to="-23582546#6" departLane="best" type="passenger"/>
    <trip id="91" depart="18.20" from="330465827#1" to="-92041049#7" departLane="best" type="passenger"/>
    <trip id="92" depart="18.40" from="-254607168" to="184383636#0" departLane="best" type="passenger"/>
    <trip id="93" depart="18.60" from="93475347#0" to="330465828#3" departLane="best" type="passenger"/>
    <trip id="94" depart="18.80" from="-92041049#1" to="-46142799#8" departLane="best" type="passenger"/>
    <trip id="95" depart="19.00" from="92041049#2" to="296980004#5" departLane="best" type="passenger"/>
    <trip id="96" depart="19.20" from="232496355#8" to="23683304#0" departLane="best" type="passenger"/>
    <trip id="97" depart="19.40" from="-93475347#0" to="272200697#2" departLane="best" type="passenger"/>
    <trip id="98" depart="19.60" from="-88867325#1" to="-296980004#0" departLane="best" type="passenger"/>
    <trip id="99" depart="19.80" from="-88867300#3" to="46142799#8" departLane="best" type="passenger"/>
    <trip id="100" depart="20.00" from="-232501700#0" to="330465830#0" departLane="best" type="passenger"/>
    <trip id="101" depart="20.20" from="-92041148" to="-51005978#2" departLane="best" type="passenger"/>
    <trip id="102" depart="20.40" from="-330465828#7" to="330465827#0" departLane="best" type="passenger"/>
    <trip id="103" depart="20.60" from="257245112#7" to="-232496355#7" departLane="best" type="passenger"/>
    <trip id="104" depart="20.80" from="270585771#0" to="-232496368#8" departLane="best" type="passenger"/>
    <trip id="105" depart="21.00" from="257245112#0" to="-385202255#3" departLane="best" type="passenger"/>
    <trip id="106" depart="21.20" from="385202255#10" to="-92041049#7" departLane="best" type="passenger"/>
    <trip id="107" depart="21.40" from="-232496368#7" to="330465827#0" departLane="best" type="passenger"/>
    <trip id="108" depart="21.60" from="-386281940#1" to="403863073" departLane="best" type="passenger"/>
    <trip id="109" depart="21.80" from="296980004#3" to="280728219#0" departLane="best" type="passenger"/>
    <trip id="110" depart="22.00" from="-418972770" to="-272200694#3" departLane="best" type="passenger"/>
    <trip id="111" depart="22.20" from="-35164004#3" to="296215789#3" departLane="best" type="passenger"/>
    <trip id="112" depart="22.40" from="-296980007#0" to="51005979#1" departLane="best" type="passenger"/>
    <trip id="113" depart="22.60" from="-296215789#2" to="23582544#4" departLane="best" type="passenger"/>
    <trip id="114" depart="22.80" from="296980016" to="232496355#11" departLane="best" type="passenger"/>
    <trip id="115" depart="23.00" from="272200694#5" to="46142799#3" departLane="best" type="passenger"/>
    <trip id="116" depart="23.20" from="88867300#2" to="-88867325#0" departLane="best" type="passenger"/>
    <trip id="117" depart="23.40" from="221608654#3" to="35163999" departLane="best" type="passenger"/>
    <trip id="118" depart="23.60" from="385202258#0" to="520932346#1" departLane="best" type="passenger"/>
    <trip id="119" depart="23.80" from="232501700#1" to="-232496368#4" departLane="best" type="passenger"/>
    <trip id="120" depart="24.00" from="-296980003#1" to="-184383576#6" departLane="best" type="passenger"/>
    <trip id="121" depart="24.20" from="25823393#0" to="-71928163#2" departLane="best" type="passenger"/>
    <trip id="122" depart="24.40" from="-232496355#8" to="-24149482#1" departLane="best" type="passenger"/>
    <trip id="123" depart="24.60" from="385202255#7" to="-385202255#9" departLane="best" type="passenger"/>
    <trip id="124" depart="24.80" from="272200694#5" to="-88867327#0" departLane="best" type="passenger"/>
    <trip id="125" depart="25.00" from="-265614897#3" to="-296980004#1" departLane="best" type="passenger"/>
    <trip id="126" depart="25.20" from="35983484#1" to="52254946#2" departLane="best" type="passenger"/>
    <trip id="127" depart="25.40" from="-184383578#0" to="-314546701" departLane="best" type="passenger"/>
    <trip id="128" depart="25.60" from="296980004#5" to="-385202255#5" departLane="best" type="passenger"/>
    <trip id="129" depart="25.80" from="296215789#1" to="-385202258#1" departLane="best" type="passenger"/>
    <trip id="130" depart="26.00" from="184383576#6" to="-88867322#1" departLane="best" type="passenger"/>
    <trip id="131" depart="26.20" from="232496368#6" to="-296215789#3" departLane="best" type="passenger"/>
    <trip id="132" depart="26.40" from="385202259#1" to="-232496368#9" departLane="best" type="passenger"/>
    <trip id="133" depart="26.60" from="-272200694#9" to="-296980001#2" departLane="best" type="passenger"/>
    <trip id="134" depart="26.80" from="184383588#1" to="-93475347#0" departLane="best" type="passenger"/>
    <trip id="135" depart="27.00" from="-46142799#6" to="-92041049#3" departLane="best" type="passenger"/>
    <trip id="136" depart="27.20" from="330465828#0" to="-385202255#8" departLane="best" type="passenger"/>
    <trip id="137" depart="27.40" from="-272200694#6" to="418251596" departLane="best" type="passenger"/>
    <trip id="138" depart="27.60" from="-46142799#7" to="385202255#7" departLane="best" type="passenger"/>
    <trip id="139" depart="27.80" from="-330465828#6" to="257245112#1" departLane="best" type="passenger"/>
    <trip id="140" depart="28.00" from="-232501700#1" to="272200694#7" departLane="best" type="passenger"/>
    <trip id="141" depart="28.20" from="385202255#5" to="-296213172#0" departLane="best" type="passenger"/>
    <trip id="142" depart="28.40" from="296980001#1" to="-385202255#7" departLane="best" type="passenger"/>
    <trip id="143" depart="28.60" from="-386281939#3" to="330465828#5" departLane="best" type="passenger"/>
    <trip id="144" depart="28.80" from="88867314#3" to="23978594#1" departLane="best" type="passenger"/>
    <trip id="145" depart="29.00" from="184383588#2" to="-35164004#2" departLane="best" type="passenger"/>
    <trip id="146" depart="29.20" from="330465828#0" to="-92041049#4" departLane="best" type="passenger"/>
    <trip id="147" depart="29.40" from="-46142799#6" to="88867314#2" departLane="best" type="passenger"/>
    <trip id="148" depart="29.60" from="-296980001#3" to="-232496362#1" departLane="best" type="passenger"/>
    <trip id="149" depart="29.80" from="-52254946#1" to="221608654#4" departLane="best" type="passenger"/>
    <trip id="150" depart="30.00" from="330465828#1" to="23582546#1" departLane="best" type="passenger"/>
    <trip id="151" depart="30.20" from="401959566#0" to="385202258#0" departLane="best" type="passenger"/>
    <trip id="152" depart="30.40" from="254607168" to="-92071606#4" departLane="best" type="passenger"/>
    <trip id="153" depart="30.60" from="-385202255#3" to="46142799#8" departLane="best" type="passenger"/>
    <trip id="154" depart="30.80" from="296215789#5" to="-401959564#2" departLane="best" type="passenger"/>
    <trip id="155" depart="31.00" from="385202255#0" to="92071606#0" departLane="best" type="passenger"/>
    <trip id="156" depart="31.20" from="418972774#0" to="330465828#1" departLane="best" type="passenger"/>
    <trip id="157" depart="31.40" from="272200694#9" to="-25568481#4" departLane="best" type="passenger"/>
    <trip id="158" depart="31.60" from="35164004#1" to="232496355#3" departLane="best" type="passenger"/>
    <trip id="159" depart="31.80" from="92071606#0" to="-51005979#2" departLane="best" type="passenger"/>
    <trip id="160" depart="32.00" from="-184383636#0" to="296980001#0" departLane="best" type="passenger"/>
    <trip id="161" depart="32.20" from="232496355#12" to="-92041158" departLane="best" type="passenger"/>
    <trip id="162" depart="32.40" from="-184383578#1" to="-296980003#2" departLane="best" type="passenger"/>
    <trip id="163" depart="32.60" from="-88867313#0" to="-51005978#2" departLane="best" type="passenger"/>
    <trip id="164" depart="32.80" from="-272200694#5" to="-330465830#1" departLane="best" type="passenger"/>
    <trip id="165" depart="33.00" from="-88867310#3" to="92071741#2" departLane="best" type="passenger"/>
    <trip id="166" depart="33.20" from="232496368#1" to="88867313#1" departLane="best" type="passenger"/>
    <trip id="167" depart="33.40" from="232496362#0" to="-232496368#2" departLane="best" type="passenger"/>
    <trip id="168" depart="33.60" from="-296980001#0" to="386281939#1" departLane="best" type="passenger"/>
    <trip id="169" depart="33.80" from="88867315#0" to="184383578#1" departLane="best" type="passenger"/>
    <trip id="170" depart="34.00" from="88867317#0" to="-35164004#4" departLane="best" type="passenger"/>
    <trip id="171" depart="34.20" from="23683304#2" to="-232496355#6" departLane="best" type="passenger"/>
    <trip id="172" depart="34.40" from="92041049#5" to="272200694#7" departLane="best" type="passenger"/>
    <trip id="173" depart="34.60" from="330465828#7" to="184383576#4" departLane="best" type="passenger"/>
    <trip id="174" depart="34.80" from="-232496368#1" to="-71928163#2" departLane="best" type="passenger"/>
    <trip id="175" depart="35.00" from="184383576#7" to="385202256#0" departLane="best" type="passenger"/>
    <trip id="176" depart="35.20" from="-272200694#1" to="383026348#1" departLane="best" type="passenger"/>
    <trip id="177" depart="35.40" from="272200694#3" to="184383588#3" departLane="best" type="passenger"/>
    <trip id="178" depart="35.60" from="-330465828#6" to="-184383558#4" departLane="best" type="passenger"/>
    <trip id="179" depart="35.80" from="-221608654#0" to="88867317#2" departLane="best" type="passenger"/>
    <trip id="180" depart="36.00" from="-232496355#10" to="-184383636#1" departLane="best" type="passenger"/>
    <trip id="181" depart="36.20" from="184383636#0" to="-51005978#0" departLane="best" type="passenger"/>
    <trip id="182" depart="36.40" from="403863070#1" to="312561040#0" departLane="best" type="passenger"/>
    <trip id="183" depart="36.60" from="403863070#2" to="24149482#0" departLane="best" type="passenger"/>
    <trip id="184" depart="36.80" from="-296215789#3" to="330465830#0" departLane="best" type="passenger"/>
    <trip id="185" depart="37.00" from="-46142799#8" to="35164004#2" departLane="best" type="passenger"/>
    <trip id="186" depart="37.20" from="-386281939#2" to="296213172#3" departLane="best" type="passenger"/>
    <trip id="187" depart="37.40" from="-35164004#0" to="257245112#6" departLane="best" type="passenger"/>
    <trip id="188" depart="37.60" from="-385202255#9" to="88867314#2" departLane="best" type="passenger"/>
    <trip id="189" depart="37.80" from="272200694#2" to="92071741#6" departLane="best" type="passenger"/>
    <trip id="190" depart="38.00" from="330465828#4" to="-25568481#0" departLane="best" type="passenger"/>
    <trip id="191" depart="38.20" from="257245119#2" to="88867314#0" departLane="best" type="passenger"/>
    <trip id="192" depart="38.40" from="272200694#7" to="92071741#0" departLane="best" type="passenger"/>
    <trip id="193" depart="38.60" from="296980003#2" to="270585771#0" departLane="best" type="passenger"/>
    <trip id="194" depart="38.80" from="-265614897#3" to="330465827#0" departLane="best" type="passenger"/>
    <trip id="195" depart="39.00" from="-23582544#4" to="385202255#9" departLane="best" type="passenger"/>
    <trip id="196" depart="39.20" from="270585766#1" to="23582544#6" departLane="best" type="passenger"/>
    <trip id="197" depart="39.40" from="-23582544#1" to="-232501700#1" departLane="best" type="passenger"/>
    <trip id="198" depart="39.60" from="-88867314#2" to="-46142799#3" departLane="best" type="passenger"/>
    <trip id="199" depart="39.80" from="25568481#0" to="35164004#3" departLane="best" type="passenger"/>
    <trip id="200" depart="40.00" from="-23582546#8" to="-88867310#3" departLane="best" type="passenger"/>
    <trip id="201" depart="40.20" from="23683304#2" to="92041049#6" departLane="best" type="passenger"/>
    <trip id="202" depart="40.40" from="-184383552" to="35164004#3" departLane="best" type="passenger"/>
    <trip id="203" depart="40.60" from="-272200694#9" to="-330465828#8" departLane="best" type="passenger"/>
    <trip id="204" depart="40.80" from="272200697#1" to="330465827#0" departLane="best" type="passenger"/>
    <trip id="205" depart="41.00" from="-272200694#3" to="42680532#0" departLane="best" type="passenger"/>
    <trip id="206" depart="41.20" from="-296213172#1" to="-385202255#4" departLane="best" type="passenger"/>
    <trip id="207" depart="41.40" from="270268067#2" to="418972773#1" departLane="best" type="passenger"/>
    <trip id="208" depart="41.60" from="255537686#3" to="380327966#1" departLane="best" type="passenger"/>
    <trip id="209" depart="41.80" from="184383588#3" to="-88867322#1" departLane="best" type="passenger"/>
    <trip id="210" depart="42.00" from="92071606#3" to="385202256#1" departLane="best" type="passenger"/>
    <trip id="211" depart="42.20" from="-385202255#10" to="418972770" departLane="best" type="passenger"/>
    <trip id="212" depart="42.40" from="330465827#2" to="92071741#5" departLane="best" type="passenger"/>
    <trip id="213" depart="42.60" from="330465830#1" to="-92041171" departLane="best" type="passenger"/>
    <trip id="214" depart="42.80" from="46142799#5" to="-92041158" departLane="best" type="passenger"/>
    <trip id="215" depart="43.00" from="380327966#0" to="-94059895#2" departLane="best" type="passenger"/>
    <trip id="216" depart="43.20" from="-330465828#0" to="88867322#6" departLane="best" type="passenger"/>
    <trip id="217" depart="43.40" from="257245112#2" to="92071741#3" departLane="best" type="passenger"/>
    <trip id="218" depart="43.60" from="-330465828#1" to="385202255#0" departLane="best" type="passenger"/>
    <trip id="219" depart="43.80" from="-71928163#1" to="-272200697#1" departLane="best" type="passenger"/>
    <trip id="220" depart="44.00" from="-184383558#3" to="-23582544#4" departLane="best" type="passenger"/>
    <trip id="221" depart="44.20" from="385202255#7" to="23582544#5" departLane="best" type="passenger"/>
    <trip id="222" depart="44.40" from="296980003#2" to="232501700#2" departLane="best" type="passenger"/>
    <trip id="223" depart="44.60" from="30074977" to="-88867310#3" departLane="best" type="passenger"/>
    <trip id="224" depart="44.80" from="-88867325#0" to="-296980004#0" departLane="best" type="passenger"/>
    <trip id="225" depart="45.00" from="-296980003#2" to="254607165#1" departLane="best" type="passenger"/>
    <trip id="226" depart="45.20" from="-401959566#1" to="-232496355#12" departLane="best" type="passenger"/>
    <trip id="227" depart="45.40" from="257245112#0" to="-280728219#0" departLane="best" type="passenger"/>
    <trip id="228" depart="45.60" from="-520932346#0" to="-225874158" departLane="best" type="passenger"/>
    <trip id="229" depart="45.80" from="92041049#4" to="-35164004#1" departLane="best" type="passenger"/>
    <trip id="230" depart="46.00" from="296980001#1" to="94059895#1" departLane="best" type="passenger"/>
    <trip id="231" depart="46.20" from="25823393#0" to="-296213172#2" departLane="best" type="passenger"/>
    <trip id="232" depart="46.40" from="296980001#1" to="330465828#6" departLane="best" type="passenger"/>
    <trip id="233" depart="46.60" from="296980004#4" to="-385202256#0" departLane="best" type="passenger"/>
    <trip id="234" depart="46.80" from="184383576#5" to="383026340#0" departLane="best" type="passenger"/>
    <trip id="235" depart="47.00" from="46142799#3" to="383026340#0" departLane="best" type="passenger"/>
    <trip id="236" depart="47.20" from="88867314#0" to="-296213172#3" departLane="best" type="passenger"/>
    <trip id="237" depart="47.40" from="-401959564#4" to="-184383576#6" departLane="best" type="passenger"/>
    <trip id="238" depart="47.60" from="-24149482#1" to="25568481#1" departLane="best" type="passenger"/>
    <trip id="239" depart="47.80" from="-254607164#1" to="255537687#0" departLane="best" type="passenger"/>
    <trip id="240" depart="48.00" from="254607166#0" to="71928163#0" departLane="best" type="passenger"/>
    <trip id="241" depart="48.20" from="-385202255#8" to="-330465828#7" departLane="best" type="passenger"/>
    <trip id="242" depart="48.40" from="-330465828#0" to="232496355#8" departLane="best" type="passenger"/>
    <trip id="243" depart="48.60" from="312561040#0" to="92071741#0" departLane="best" type="passenger"/>
    <trip id="244" depart="48.80" from="232496362#0" to="221608654#3" departLane="best" type="passenger"/>
    <trip id="245" depart="49.00" from="280728219#2" to="-94059895#2" departLane="best" type="passenger"/>
    <trip id="246" depart="49.20" from="-25568481#3" to="-88867300#2" departLane="best" type="passenger"/>
    <trip id="247" depart="49.40" from="-92041171" to="-23978594#2" departLane="best" type="passenger"/>
    <trip id="248" depart="49.60" from="25568481#4" to="-296980003#2" departLane="best" type="passenger"/>
    <trip id="249" depart="49.80" from="184383558#3" to="418972770" departLane="best" type="passenger"/>
    <trip id="250" depart="50.00" from="385202255#10" to="184383639#0" departLane="best" type="passenger"/>
    <trip id="251" depart="50.20" from="-403863073" to="330465828#8" departLane="best" type="passenger"/>
    <trip id="252" depart="50.40" from="-25568481#0" to="-232496368#6" departLane="best" type="passenger"/>
    <trip id="253" depart="50.60" from="401959564#1" to="88867322#3" departLane="best" type="passenger"/>
    <trip id="254" depart="50.80" from="-385202255#10" to="88867310#4" departLane="best" type="passenger"/>
    <trip id="255" depart="51.00" from="-232496368#1" to="35164004#3" departLane="best" type="passenger"/>
    <trip id="256" depart="51.20" from="92071741#5" to="23582544#5" departLane="best" type="passenger"/>
    <trip id="257" depart="51.40" from="-184383552" to="-385202255#5" departLane="best" type="passenger"/>
    <trip id="258" depart="51.60" from="-232501700#1" to="-184383555" departLane="best" type="passenger"/>
    <trip id="259" depart="51.80" from="-88867315#1" to="232496355#5" departLane="best" type="passenger"/>
    <trip id="260" depart="52.00" from="272200697#1" to="-88867300#2" departLane="best" type="passenger"/>
    <trip id="261" depart="52.20" from="-88867327#0" to="88867310#3" departLane="best" type="passenger"/>
    <trip id="262" depart="52.40" from="255537687#0" to="94059895#1" departLane="best" type="passenger"/>
    <trip id="263" depart="52.60" from="-330465828#4" to="88867325#1" departLane="best" type="passenger"/>
    <trip id="264" depart="52.80" from="92041171" to="-88867322#4" departLane="best" type="passenger"/>
    <trip id="265" depart="53.00" from="-330465828#0" to="-88867325#0" departLane="best" type="passenger"/>
    <trip id="266" depart="53.20" from="-270268067#0" to="520932346#1" departLane="best" type="passenger"/>
    <trip id="267" depart="53.40" from="520932346#0" to="-296980004#3" departLane="best" type="passenger"/>
    <trip id="268" depart="53.60" from="51005978#1" to="403863070#1" departLane="best" type="passenger"/>
    <trip id="269" depart="53.80" from="-92041049#1" to="184383552" departLane="best" type="passenger"/>
    <trip id="270" depart="54.00" from="418251597" to="-232496368#7" departLane="best" type="passenger"/>
    <trip id="271" depart="54.20" from="254607165#1" to="-46142799#2" departLane="best" type="passenger"/>
    <trip id="272" depart="54.40" from="383026348#0" to="92071655#5" departLane="best" type="passenger"/>
    <trip id="273" depart="54.60" from="88867327#1" to="-46142799#3" departLane="best" type="passenger"/>
    <trip id="274" depart="54.80" from="386281940#0" to="35164004#1" departLane="best" type="passenger"/>
    <trip id="275" depart="55.00" from="-23582544#0" to="272200694#5" departLane="best" type="passenger"/>
    <trip id="276" depart="55.20" from="-92071606#4" to="-92041049#6" departLane="best" type="passenger"/>
    <trip id="277" depart="55.40" from="403863070#2" to="418251596" departLane="best" type="passenger"/>