<additional>
    <tlLogic id="1019448873" type="static" programID="1" offset="0">
        <phase duration="28" state="GggGGgrrrr"/>
        <phase duration="9" state="yggyygrrrr"/>
        <phase duration="6" state="rGGrrGrrrr"/>
        <phase duration="9" state="ryyrryrrrr"/>
        <phase duration="29" state="rrrrrrGGGG"/>
        <phase duration="9" state="rrrrrryyyy"/>
    </tlLogic>
    <tlLogic id="1019448878" type="static" programID="1" offset="0">
        <phase duration="28" state="GGgrrrrGgg"/>
        <phase duration="9" state="yygrrrrygg"/>
        <phase duration="6" state="rrGrrrrrGG"/>
        <phase duration="9" state="rryrrrrryy"/>
        <phase duration="29" state="rrrGGGGrrr"/>
        <phase duration="9" state="rrryyyyrrr"/>
    </tlLogic>
    <tlLogic id="1019448896" type="static" programID="1" offset="0">
        <phase duration="28" state="GggGGgrrrr"/>
        <phase duration="9" state="yggyygrrrr"/>
        <phase duration="6" state="rGGrrGrrrr"/>
        <phase duration="9" state="ryyrryrrrr"/>
        <phase duration="29" state="rrrrrrGGGG"/>
        <phase duration="9" state="rrrrrryyyy"/>
    </tlLogic>
    <tlLogic id="1019448906" type="static" programID="1" offset="0">
        <phase duration="83" state="GG"/>
        <phase duration="7" state="yy"/>
    </tlLogic>
    <tlLogic id="1019449001" type="static" programID="1" offset="0">
        <phase duration="32" state="GggGGgrrr"/>
        <phase duration="7" state="yggyygrrr"/>
        <phase duration="6" state="rGGrrGrrr"/>
        <phase duration="7" state="ryyrryrrr"/>
        <phase duration="31" state="rrrrrrGGG"/>
        <phase duration="7" state="rrrrrryyy"/>
    </tlLogic>
    <tlLogic id="1019449005" type="static" programID="1" offset="0">
        <phase duration="25" state="GGggrrrrGGggrrrr"/>
        <phase duration="7" state="yyggrrrryyggrrrr"/>
        <phase duration="6" state="rrGGrrrrrrGGrrrr"/>
        <phase duration="7" state="rryyrrrrrryyrrrr"/>
        <phase duration="25" state="rrrrGGggrrrrGGgg"/>
        <phase duration="7" state="rrrryyggrrrryygg"/>
        <phase duration="6" state="rrrrrrGGrrrrrrGG"/>
        <phase duration="7" state="rrrrrryyrrrrrryy"/>
    </tlLogic>
    <tlLogic id="1019449024" type="static" programID="1" offset="0">
        <phase duration="83" state="G"/>
        <phase duration="7" state="y"/>
    </tlLogic>
    <tlLogic id="1019449025" type="static" programID="1" offset="0">
        <phase duration="28" state="GGgrrrrGgg"/>
        <phase duration="9" state="yygrrrrygg"/>
        <phase duration="6" state="rrGrrrrrGG"/>
        <phase duration="9" state="rryrrrrryy"/>
        <phase duration="29" state="rrrGGGGrrr"/>
        <phase duration="9" state="rrryyyyrrr"/>
    </tlLogic>
    <tlLogic id="1019449044" type="static" programID="1" offset="0">
        <phase duration="83" state="GG"/>
        <phase duration="7" state="yy"/>
    </tlLogic>
    <tlLogic id="1147069702" type="static" programID="1" offset="0">
        <phase duration="32" state="GGgrrrGgg"/>
        <phase duration="7" state="yygrrrygg"/>
        <phase duration="6" state="rrGrrrrGG"/>
        <phase duration="7" state="rryrrrryy"/>
        <phase duration="31" state="rrrGGGrrr"/>
        <phase duration="7" state="rrryyyrrr"/>
    </tlLogic>
    <tlLogic id="1147069708" type="static" programID="1" offset="0">
        <phase duration="25" state="GGggrrrrGGggrrrr"/>
        <phase duration="7" state="yyggrrrryyggrrrr"/>
        <phase duration="6" state="rrGGrrrrrrGGrrrr"/>
        <phase duration="7" state="rryyrrrrrryyrrrr"/>
        <phase duration="25" state="rrrrGGggrrrrGGgg"/>
        <phase duration="7" state="rrrryyggrrrryygg"/>
        <phase duration="6" state="rrrrrrGGrrrrrrGG"/>
        <phase duration="7" state="rrrrrryyrrrrrryy"/>
    </tlLogic>
    <tlLogic id="1147069714" type="static" programID="1" offset="0">
        <phase duration="38" state="GGrr"/>
        <phase duration="7" state="yyrr"/>
        <phase duration="38" state="rrGG"/>
        <phase duration="7" state="rryy"/>
    </tlLogic>
    <tlLogic id="1147069737" type="static" programID="1" offset="0">
        <phase duration="81" state="GG"/>
        <phase duration="9" state="yy"/>
    </tlLogic>
    <tlLogic id="1263333950" type="static" programID="1" offset="0">
        <phase duration="83" state="GG"/>
        <phase duration="7" state="yy"/>
    </tlLogic>
    <tlLogic id="1263334057" type="static" programID="1" offset="0">
        <phase duration="86" state="GgGg"/>
        <phase duration="4" state="yyyy"/>
    </tlLogic>
    <tlLogic id="1271736369" type="static" programID="1" offset="0">
        <phase duration="25" state="GGggrrrrGGggrrrr"/>
        <phase duration="7" state="yyggrrrryyggrrrr"/>
        <phase duration="6" state="rrGGrrrrrrGGrrrr"/>
        <phase duration="7" state="rryyrrrrrryyrrrr"/>
        <phase duration="25" state="rrrrGGggrrrrGGgg"/>
        <phase duration="7" state="rrrryyggrrrryygg"/>
        <phase duration="6" state="rrrrrrGGrrrrrrGG"/>
        <phase duration="7" state="rrrrrryyrrrrrryy"/>
    </tlLogic>
    <tlLogic id="1271736399" type="static" programID="1" offset="0">
        <phase duration="86" state="GgGg"/>
        <phase duration="4" state="yyyy"/>
    </tlLogic>
    <tlLogic id="1271736405" type="static" programID="1" offset="0">
        <phase duration="83" state="G"/>
        <phase duration="7" state="y"/>
    </tlLogic>
    <tlLogic id="2127364101" type="static" programID="1" offset="0">
        <phase duration="83" state="G"/>
        <phase duration="7" state="y"/>
    </tlLogic>
    <tlLogic id="2127364107" type="static" programID="1" offset="0">
        <phase duration="83" state="G"/>
        <phase duration="7" state="y"/>
    </tlLogic>
    <tlLogic id="2127364109" type="static" programID="1" offset="0">
        <phase duration="81" state="GG"/>
        <phase duration="9" state="yy"/>
    </tlLogic>
    <tlLogic id="2179606672" type="static" programID="1" offset="0">
        <phase duration="32" state="GGgrrrGgg"/>
        <phase duration="7" state="yygrrrygg"/>
        <phase duration="6" state="rrGrrrrGG"/>
        <phase duration="7" state="rryrrrryy"/>
        <phase duration="31" state="rrrGGGrrr"/>
        <phase duration="7" state="rrryyyrrr"/>
    </tlLogic>
    <tlLogic id="2179606686" type="static" programID="1" offset="0">
        <phase duration="25" state="rrrrGGggrrrrGGgg"/>
        <phase duration="7" state="rrrryyggrrrryygg"/>
        <phase duration="6" state="rrrrrrGGrrrrrrGG"/>
        <phase duration="7" state="rrrrrryyrrrrrryy"/>
        <phase duration="25" state="GGggrrrrGGggrrrr"/>
        <phase duration="7" state="yyggrrrryyggrrrr"/>
        <phase duration="6" state="rrGGrrrrrrGGrrrr"/>
        <phase duration="7" state="rryyrrrrrryyrrrr"/>
    </tlLogic>
    <tlLogic id="2179606688" type="static" programID="1" offset="0">
        <phase duration="25" state="rrrrGGggrrrrGGgg"/>
        <phase duration="7" state="rrrryyggrrrryygg"/>
        <phase duration="6" state="rrrrrrGGrrrrrrGG"/>
        <phase duration="7" state="rrrrrryyrrrrrryy"/>
        <phase duration="25" state="GGggrrrrGGggrrrr"/>
        <phase duration="7" state="yyggrrrryyggrrrr"/>
        <phase duration="6" state="rrGGrrrrrrGGrrrr"/>
        <phase duration="7" state="rryyrrrrrryyrrrr"/>
    </tlLogic>
    <tlLogic id="2179606702" type="static" programID="1" offset="0">
        <phase duration="25" state="GGggrrrrGGggrrrr"/>
        <phase duration="7" state="yyggrrrryyggrrrr"/>
        <phase duration="6" state="rrGGrrrrrrGGrrrr"/>
        <phase duration="7" state="rryyrrrrrryyrrrr"/>
        <phase duration="25" state="rrrrGGggrrrrGGgg"/>
        <phase duration="7" state="rrrryyggrrrryygg"/>
        <phase duration="6" state="rrrrrrGGrrrrrrGG"/>
        <phase duration="7" state="rrrrrryyrrrrrryy"/>
    </tlLogic>
    <tlLogic id="2179606707" type="static" programID="1" offset="0">
        <phase duration="32" state="GGgrrrGgg"/>
        <phase duration="7" state="yygrrrygg"/>
        <phase duration="6" state="rrGrrrrGG"/>
        <phase duration="7" state="rryrrrryy"/>
        <phase duration="31" state="rrrGGGrrr"/>
        <phase duration="7" state="rrryyyrrr"/>
    </tlLogic>
    <tlLogic id="2222553805" type="static" programID="1" offset="0">
        <phase duration="28" state="GGgrrrrGgg"/>
        <phase duration="9" state="yygrrrrygg"/>
        <phase duration="6" state="rrGrrrrrGG"/>
        <phase duration="9" state="rryrrrrryy"/>
        <phase duration="29" state="rrrGGGGrrr"/>
        <phase duration="9" state="rrryyyyrrr"/>
    </tlLogic>
    <tlLogic id="2222553810" type="static" programID="1" offset="0">
        <phase duration="28" state="rrggGGG"/>
        <phase duration="9" state="rrggyyy"/>
        <phase duration="6" state="rrGGrrr"/>
        <phase duration="9" state="rryyrrr"/>
        <phase duration="29" state="GGrrrrr"/>
        <phase duration="9" state="yyrrrrr"/>
    </tlLogic>
    <tlLogic id="2222553812" type="static" programID="1" offset="0">
        <phase duration="28" state="GggGGgrrrr"/>
        <phase duration="9" state="yggyygrrrr"/>
        <phase duration="6" state="rGGrrGrrrr"/>
        <phase duration="9" state="ryyrryrrrr"/>
        <phase duration="29" state="rrrrrrGGGG"/>
        <phase duration="9" state="rrrrrryyyy"/>
    </tlLogic>
    <tlLogic id="2222553813" type="static" programID="1" offset="0">
        <phase duration="28" state="GGgrrrrGgg"/>
        <phase duration="9" state="yygrrrrygg"/>
        <phase duration="6" state="rrGrrrrrGG"/>
        <phase duration="9" state="rryrrrrryy"/>
        <phase duration="29" state="rrrGGGGrrr"/>
        <phase duration="9" state="rrryyyyrrr"/>
    </tlLogic>
    <tlLogic id="2222553815" type="static" programID="1" offset="0">
        <phase duration="28" state="GGgrrrrGgg"/>
        <phase duration="9" state="yygrrrrygg"/>
        <phase duration="6" state="rrGrrrrrGG"/>
        <phase duration="9" state="rryrrrrryy"/>
        <phase duration="29" state="rrrGGGGrrr"/>
        <phase duration="9" state="rrryyyyrrr"/>
    </tlLogic>
    <tlLogic id="2222553818" type="static" programID="1" offset="0">
        <phase duration="36" state="GGrrr"/>
        <phase duration="9" state="yyrrr"/>
        <phase duration="36" state="rrGGG"/>
        <phase duration="9" state="rryyy"/>
    </tlLogic>
    <tlLogic id="2222553820" type="static" programID="1" offset="0">
        <phase duration="36" state="GGGrr"/>
        <phase duration="9" state="yyyrr"/>
        <phase duration="36" state="rrrGG"/>
        <phase duration="9" state="rrryy"/>
    </tlLogic>
    <tlLogic id="2222553823" type="static" programID="1" offset="0">
        <phase duration="36" state="GGGrr"/>
        <phase duration="9" state="yyyrr"/>
        <phase duration="36" state="rrrGG"/>
        <phase duration="9" state="rrryy"/>
    </tlLogic>
    <tlLogic id="2222553852" type="static" programID="1" offset="0">
        <phase duration="36" state="GGrrr"/>
        <phase duration="9" state="yyrrr"/>
        <phase duration="36" state="rrGGG"/>
        <phase duration="9" state="rryyy"/>
    </tlLogic>
    <tlLogic id="2222553854" type="static" programID="1" offset="0">
        <phase duration="36" state="GGrrr"/>
        <phase duration="9" state="yyrrr"/>
        <phase duration="36" state="rrGGG"/>
        <phase duration="9" state="rryyy"/>
    </tlLogic>
    <tlLogic id="2222553856" type="static" programID="1" offset="0">
        <phase duration="36" state="GGrrr"/>
        <phase duration="9" state="yyrrr"/>
        <phase duration="36" state="rrGGG"/>
        <phase duration="9" state="rryyy"/>
    </tlLogic>
    <tlLogic id="2222553858" type="static" programID="1" offset="0">
        <phase duration="36" state="GGGrr"/>
        <phase duration="9" state="yyyrr"/>
        <phase duration="36" state="rrrGG"/>
        <phase duration="9" state="rrryy"/>
    </tlLogic>
    <tlLogic id="2222553859" type="static" programID="1" offset="0">
        <phase duration="36" state="GGrrr"/>
        <phase duration="9" state="yyrrr"/>
        <phase duration="36" state="rrGGG"/>
        <phase duration="9" state="rryyy"/>
    </tlLogic>
    <tlLogic id="2285774429" type="static" programID="1" offset="0">
        <phase duration="31" state="GGggrrrrGGggrrrr"/>
        <phase duration="4" state="yyggrrrryyggrrrr"/>
        <phase duration="6" state="rrGGrrrrrrGGrrrr"/>
        <phase duration="4" state="rryyrrrrrryyrrrr"/>
        <phase duration="31" state="rrrrGGggrrrrGGgg"/>
        <phase duration="4" state="rrrryyggrrrryygg"/>
        <phase duration="6" state="rrrrrrGGrrrrrrGG"/>
        <phase duration="4" state="rrrrrryyrrrrrryy"/>
    </tlLogic>
    <tlLogic id="2285774431" type="static" programID="1" offset="0">
        <phase duration="41" state="GgGr"/>
        <phase duration="4" state="yyyr"/>
        <phase duration="41" state="GrGg"/>
        <phase duration="4" state="yryy"/>
    </tlLogic>
    <tlLogic id="2285774473" type="static" programID="1" offset="0">
        <phase duration="31" state="rrrrGGggrrrrGGgg"/>
        <phase duration="4" state="rrrryyggrrrryygg"/>
        <phase duration="6" state="rrrrrrGGrrrrrrGG"/>
        <phase duration="4" state="rrrrrryyrrrrrryy"/>
        <phase duration="31" state="GGggrrrrGGggrrrr"/>
        <phase duration="4" state="yyggrrrryyggrrrr"/>
        <phase duration="6" state="rrGGrrrrrrGGrrrr"/>
        <phase duration="4" state="rryyrrrrrryyrrrr"/>
    </tlLogic>
    <tlLogic id="2285774575" type="static" programID="1" offset="0">
        <phase duration="86" state="G"/>
        <phase duration="4" state="y"/>
    </tlLogic>
    <tlLogic id="2285844856" type="static" programID="1" offset="0">
        <phase duration="83" state="G"/>
        <phase duration="7" state="y"/>
    </tlLogic>
    <tlLogic id="2285844857" type="static" programID="1" offset="0">
        <phase duration="83" state="G"/>
        <phase duration="7" state="y"/>
    </tlLogic>
    <tlLogic id="2285844862" type="static" programID="1" offset="0">
        <phase duration="83" state="G"/>
        <phase duration="7" state="y"/>
    </tlLogic>
    <tlLogic id="2285844880" type="static" programID="1" offset="0">
        <phase duration="32" state="GGgrrrGgg"/>
        <phase duration="7" state="yygrrrygg"/>
        <phase duration="6" state="rrGrrrrGG"/>
        <phase duration="7" state="rryrrrryy"/>
        <phase duration="31" state="rrrGGGrrr"/>
        <phase duration="7" state="rrryyyrrr"/>
    </tlLogic>
    <tlLogic id="2285844881" type="static" programID="1" offset="0">
        <phase duration="32" state="rrrGggGGg"/>
        <phase duration="7" state="rrryggyyg"/>
        <phase duration="6" state="rrrrGGrrG"/>
        <phase duration="7" state="rrrryyrry"/>
        <phase duration="31" state="GGGrrrrrr"/>
        <phase duration="7" state="yyyrrrrrr"/>
    </tlLogic>
    <tlLogic id="2285844882" type="static" programID="1" offset="0">
        <phase duration="32" state="GGgrrrGgg"/>
        <phase duration="7" state="yygrrrygg"/>
        <phase duration="6" state="rrGrrrrGG"/>
        <phase duration="7" state="rryrrrryy"/>
        <phase duration="31" state="rrrGGGrrr"/>
        <phase duration="7" state="rrryyyrrr"/>
    </tlLogic>
    <tlLogic id="2285844890" type="static" programID="1" offset="0">
        <phase duration="32" state="GGgrrrGgg"/>
        <phase duration="7" state="yygrrrygg"/>
        <phase duration="6" state="rrGrrrrGG"/>
        <phase duration="7" state="rryrrrryy"/>
        <phase duration="31" state="rrrGGGrrr"/>
        <phase duration="7" state="rrryyyrrr"/>
    </tlLogic>
    <tlLogic id="2285844891" type="static" programID="1" offset="0">
        <phase duration="38" state="GGrr"/>
        <phase duration="7" state="yyrr"/>
        <phase duration="38" state="rrGG"/>
        <phase duration="7" state="rryy"/>
    </tlLogic>
    <tlLogic id="2285844894" type="static" programID="1" offset="0">
        <phase duration="32" state="GGgrrrGgg"/>
        <phase duration="7" state="yygrrrygg"/>
        <phase duration="6" state="rrGrrrrGG"/>
        <phase duration="7" state="rryrrrryy"/>
        <phase duration="31" state="rrrGGGrrr"/>
        <phase duration="7" state="rrryyyrrr"/>
    </tlLogic>
    <tlLogic id="2285844896" type="static" programID="1" offset="0">
        <phase duration="38" state="GGrr"/>
        <phase duration="7" state="yyrr"/>
        <phase duration="38" state="rrGG"/>
        <phase duration="7" state="rryy"/>
    </tlLogic>
    <tlLogic id="2285844908" type="static" programID="1" offset="0">
        <phase duration="32" state="GGgrrrGgg"/>
        <phase duration="7" state="yygrrrygg"/>
        <phase duration="6" state="rrGrrrrGG"/>
        <phase duration="7" state="rryrrrryy"/>
        <phase duration="31" state="rrrGGGrrr"/>
        <phase duration="7" state="rrryyyrrr"/>
    </tlLogic>
    <tlLogic id="2285844909" type="static" programID="1" offset="0">
        <phase duration="38" state="GGrr"/>
        <phase duration="7" state="yyrr"/>
        <phase duration="38" state="rrGG"/>
        <phase duration="7" state="rryy"/>
    </tlLogic>
    <tlLogic id="2285844911" type="static" programID="1" offset="0">
        <phase duration="32" state="GGgrrrGgg"/>
        <phase duration="7" state="yygrrrygg"/>
        <phase duration="6" state="rrGrrrrGG"/>
        <phase duration="7" state="rryrrrryy"/>
        <phase duration="31" state="rrrGGGrrr"/>
        <phase duration="7" state="rrryyyrrr"/>
    </tlLogic>
    <tlLogic id="2285844912" type="static" programID="1" offset="0">
        <phase duration="38" state="GGrr"/>
        <phase duration="7" state="yyrr"/>
        <phase duration="38" state="rrGG"/>
        <phase duration="7" state="rryy"/>
    </tlLogic>
    <tlLogic id="2286334524" type="static" programID="1" offset="0">
        <phase duration="36" state="GGGrr"/>
        <phase duration="9" state="yyyrr"/>
        <phase duration="36" state="rrrGG"/>
        <phase duration="9" state="rrryy"/>
    </tlLogic>
    <tlLogic id="2286334525" type="static" programID="1" offset="0">
        <phase duration="36" state="GGrrr"/>
        <phase duration="9" state="yyrrr"/>
        <phase duration="36" state="rrGGG"/>
        <phase duration="9" state="rryyy"/>
    </tlLogic>
    <tlLogic id="2286334526" type="static" programID="1" offset="0">
        <phase duration="36" state="GGGrr"/>
        <phase duration="9" state="yyyrr"/>
        <phase duration="36" state="rrrGG"/>
        <phase duration="9" state="rrryy"/>
    </tlLogic>
    <tlLogic id="2286334552" type="static" programID="1" offset="0">
        <phase duration="32" state="GGgrrrGgg"/>
        <phase duration="7" state="yygrrrygg"/>
        <phase duration="6" state="rrGrrrrGG"/>
        <phase duration="7" state="rryrrrryy"/>
        <phase duration="31" state="rrrGGGrrr"/>
        <phase duration="7" state="rrryyyrrr"/>
    </tlLogic>
    <tlLogic id="2286334558" type="static" programID="1" offset="0">
        <phase duration="32" state="GGgrrrGgg"/>
        <phase duration="7" state="yygrrrygg"/>
        <phase duration="6" state="rrGrrrrGG"/>
        <phase duration="7" state="rryrrrryy"/>
        <phase duration="31" state="rrrGGGrrr"/>
        <phase duration="7" state="rrryyyrrr"/>
    </tlLogic>
    <tlLogic id="2286334583" type="static" programID="1" offset="0">
        <phase duration="38" state="GGrr"/>
        <phase duration="7" state="yyrr"/>
        <phase duration="38" state="GrGg"/>
        <phase duration="7" state="yryy"/>
    </tlLogic>
    <tlLogic id="2286334586" type="static" programID="1" offset="0">
        <phase duration="32" state="GGgrrrGgg"/>
        <phase duration="7" state="yygrrrygg"/>
        <phase duration="6" state="rrGrrrrGG"/>
        <phase duration="7" state="rryrrrryy"/>
        <phase duration="31" state="rrrGGGrrr"/>
        <phase duration="7" state="rrryyyrrr"/>
    </tlLogic>
    <tlLogic id="2286334587" type="static" programID="1" offset="0">
        <phase duration="32" state="rrrGggGGg"/>
        <phase duration="7" state="rrryggyyg"/>
        <phase duration="6" state="rrrrGGrrG"/>
        <phase duration="7" state="rrrryyrry"/>
        <phase duration="31" state="GGGrrrrrr"/>
        <phase duration="7" state="yyyrrrrrr"/>
    </tlLogic>
    <tlLogic id="2286343991" type="static" programID="1" offset="0">
        <phase duration="70" state="GGgGgg"/>
        <phase duration="7" state="yygygg"/>
        <phase duration="6" state="rrGrGG"/>
        <phase duration="7" state="rryryy"/>
    </tlLogic>
    <tlLogic id="2286344064" type="static" programID="1" offset="0">
        <phase duration="25" state="GGggrrrrGGggrrrr"/>
        <phase duration="7" state="yyggrrrryyggrrrr"/>
        <phase duration="6" state="rrGGrrrrrrGGrrrr"/>
        <phase duration="7" state="rryyrrrrrryyrrrr"/>
        <phase duration="25" state="rrrrGGggrrrrGGgg"/>
        <phase duration="7" state="rrrryyggrrrryygg"/>
        <phase duration="6" state="rrrrrrGGrrrrrrGG"/>
        <phase duration="7" state="rrrrrryyrrrrrryy"/>
    </tlLogic>
    <tlLogic id="2305186489" type="static" programID="1" offset="0">
        <phase duration="32" state="GGgrrrGgg"/>
        <phase duration="7" state="yygrrrygg"/>
        <phase duration="6" state="rrGrrrrGG"/>
        <phase duration="7" state="rryrrrryy"/>
        <phase duration="31" state="rrrGGGrrr"/>
        <phase duration="7" state="rrryyyrrr"/>
    </tlLogic>
    <tlLogic id="2320046578" type="static" programID="1" offset="0">
        <phase duration="81" state="GG"/>
        <phase duration="9" state="yy"/>
    </tlLogic>
    <tlLogic id="2406512860" type="static" programID="1" offset="0">
        <phase duration="38" state="GGrr"/>
        <phase duration="7" state="yyrr"/>
        <phase duration="38" state="rrGG"/>
        <phase duration="7" state="rryy"/>
    </tlLogic>
    <tlLogic id="2406512862" type="static" programID="1" offset="0">
        <phase duration="32" state="GggGGgrrr"/>
        <phase duration="7" state="yggyygrrr"/>
        <phase duration="6" state="rGGrrGrrr"/>
        <phase duration="7" state="ryyrryrrr"/>
        <phase duration="31" state="rrrrrrGGG"/>
        <phase duration="7" state="rrrrrryyy"/>
    </tlLogic>
    <tlLogic id="2406512864" type="static" programID="1" offset="0">
        <phase duration="32" state="GGgrrrGgg"/>
        <phase duration="7" state="yygrrrygg"/>
        <phase duration="6" state="rrGrrrrGG"/>
        <phase duration="7" state="rryrrrryy"/>
        <phase duration="31" state="rrrGGGrrr"/>
        <phase duration="7" state="rrryyyrrr"/>
    </tlLogic>
    <tlLogic id="2406512886" type="static" programID="1" offset="0">
        <phase duration="32" state="GGgrrrGgg"/>
        <phase duration="7" state="yygrrrygg"/>
        <phase duration="6" state="rrGrrrrGG"/>
        <phase duration="7" state="rryrrrryy"/>
        <phase duration="31" state="rrrGGGrrr"/>
        <phase duration="7" state="rrryyyrrr"/>
    </tlLogic>
    <tlLogic id="2409936918" type="static" programID="1" offset="0">
        <phase duration="86" state="GgGg"/>
        <phase duration="4" state="yyyy"/>
    </tlLogic>
    <tlLogic id="2473255328" type="static" programID="1" offset="0">
        <phase duration="32" state="rrrGggGGg"/>
        <phase duration="7" state="rrryggyyg"/>
        <phase duration="6" state="rrrrGGrrG"/>
        <phase duration="7" state="rrrryyrry"/>
        <phase duration="31" state="GGGrrrrrr"/>
        <phase duration="7" state="yyyrrrrrr"/>
    </tlLogic>
    <tlLogic id="2478989136" type="static" programID="1" offset="0">
        <phase duration="86" state="GgGg"/>
        <phase duration="4" state="yyyy"/>
    </tlLogic>
    <tlLogic id="2478989138" type="static" programID="1" offset="0">
        <phase duration="86" state="G"/>
        <phase duration="4" state="y"/>
    </tlLogic>
    <tlLogic id="2478989146" type="static" programID="1" offset="0">
        <phase duration="86" state="GgGg"/>
        <phase duration="4" state="yyyy"/>
    </tlLogic>
    <tlLogic id="2478989147" type="static" programID="1" offset="0">
        <phase duration="86" state="GgGg"/>
        <phase duration="4" state="yyyy"/>
    </tlLogic>
    <tlLogic id="2478989158" type="static" programID="1" offset="0">
        <phase duration="31" state="GGggrrrrGGggrrrr"/>
        <phase duration="4" state="yyggrrrryyggrrrr"/>
        <phase duration="6" state="rrGGrrrrrrGGrrrr"/>
        <phase duration="4" state="rryyrrrrrryyrrrr"/>
        <phase duration="31" state="rrrrGGggrrrrGGgg"/>
        <phase duration="4" state="rrrryyggrrrryygg"/>
        <phase duration="6" state="rrrrrrGGrrrrrrGG"/>
        <phase duration="4" state="rrrrrryyrrrrrryy"/>
    </tlLogic>
    <tlLogic id="2478989159" type="static" programID="1" offset="0">
        <phase duration="31" state="rrrrGGggrrrrGGgg"/>
        <phase duration="4" state="rrrryyggrrrryygg"/>
        <phase duration="6" state="rrrrrrGGrrrrrrGG"/>
        <phase duration="4" state="rrrrrryyrrrrrryy"/>
        <phase duration="31" state="GGggrrrrGGggrrrr"/>
        <phase duration="4" state="yyggrrrryyggrrrr"/>
        <phase duration="6" state="rrGGrrrrrrGGrrrr"/>
        <phase duration="4" state="rryyrrrrrryyrrrr"/>
    </tlLogic>
    <tlLogic id="2478989160" type="static" programID="1" offset="0">
        <phase duration="28" state="GGgrrrrGgg"/>
        <phase duration="9" state="yygrrrrygg"/>
        <phase duration="6" state="rrGrrrrrGG"/>
        <phase duration="9" state="rryrrrrryy"/>
        <phase duration="29" state="rrrGGGGrrr"/>
        <phase duration="9" state="rrryyyyrrr"/>
    </tlLogic>
    <tlLogic id="2478989186" type="static" programID="1" offset="0">
        <phase duration="32" state="GGgGggrrr"/>
        <phase duration="7" state="yygyggrrr"/>
        <phase duration="6" state="rrGrGGrrr"/>
        <phase duration="7" state="rryryyrrr"/>
        <phase duration="31" state="GrrrrrGGg"/>
        <phase duration="7" state="yrrrrryyy"/>
    </tlLogic>
    <tlLogic id="2478989201" type="static" programID="1" offset="0">
        <phase duration="32" state="GGgGggrrr"/>
        <phase duration="7" state="yygyggrrr"/>
        <phase duration="6" state="rrGrGGrrr"/>
        <phase duration="7" state="rryryyrrr"/>
        <phase duration="31" state="GrrrrrGGg"/>
        <phase duration="7" state="yrrrrryyy"/>
    </tlLogic>
    <tlLogic id="2478989230" type="static" programID="1" offset="0">
        <phase duration="32" state="GGgGggrrr"/>
        <phase duration="7" state="yygyggrrr"/>
        <phase duration="6" state="rrGrGGrrr"/>
        <phase duration="7" state="rryryyrrr"/>
        <phase duration="31" state="GrrrrrGGg"/>
        <phase duration="7" state="yrrrrryyy"/>
    </tlLogic>
    <tlLogic id="2478989233" type="static" programID="1" offset="0">
        <phase duration="31" state="rrrrGGggrrrrGGgg"/>
        <phase duration="4" state="rrrryyggrrrryygg"/>
        <phase duration="6" state="rrrrrrGGrrrrrrGG"/>
        <phase duration="4" state="rrrrrryyrrrrrryy"/>
        <phase duration="31" state="GGggrrrrGGggrrrr"/>
        <phase duration="4" state="yyggrrrryyggrrrr"/>
        <phase duration="6" state="rrGGrrrrrrGGrrrr"/>
        <phase duration="4" state="rryyrrrrrryyrrrr"/>
    </tlLogic>
    <tlLogic id="2524042400" type="static" programID="1" offset="0">
        <phase duration="36" state="GggGGgrrr"/>
        <phase duration="4" state="yggyygrrr"/>
        <phase duration="6" state="rGGrrGrrr"/>
        <phase duration="4" state="ryyrryrrr"/>
        <phase duration="36" state="rrrrrrGGG"/>
        <phase duration="4" state="rrrrrryyy"/>
    </tlLogic>
    <tlLogic id="2552059105" type="static" programID="1" offset="0">
        <phase duration="83" state="G"/>
        <phase duration="7" state="y"/>
    </tlLogic>
    <tlLogic id="2597784460" type="static" programID="1" offset="0">
        <phase duration="83" state="G"/>
        <phase duration="7" state="y"/>
    </tlLogic>
    <tlLogic id="2597789635" type="static" programID="1" offset="0">
        <phase duration="32" state="gggrrrGGG"/>
        <phase duration="7" state="gggrrryyy"/>
        <phase duration="6" state="GGGrrrrrr"/>
        <phase duration="7" state="yyyrrrrrr"/>
        <phase duration="31" state="GrrGGgrrr"/>
        <phase duration="7" state="yrryyyrrr"/>
    </tlLogic>
    <tlLogic id="2597789681" type="static" programID="1" offset="0">
        <phase duration="32" state="GGgrrrGgg"/>
        <phase duration="7" state="yygrrrygg"/>
        <phase duration="6" state="rrGrrrrGG"/>
        <phase duration="7" state="rryrrrryy"/>
        <phase duration="31" state="rrrGGGrrr"/>
        <phase duration="7" state="rrryyyrrr"/>
    </tlLogic>
    <tlLogic id="263152592" type="static" programID="1" offset="0">
        <phase duration="36" state="GGGrr"/>
        <phase duration="9" state="yyyrr"/>
        <phase duration="36" state="rrrGG"/>
        <phase duration="9" state="rrryy"/>
    </tlLogic>
    <tlLogic id="263152657" type="static" programID="1" offset="0">
        <phase duration="28" state="GggGGgrrrr"/>
        <phase duration="9" state="yggyygrrrr"/>
        <phase duration="6" state="rGGrrGrrrr"/>