<additional>
    <tlLogic id="1559451853" type="static" programID="0" offset="0">
        <phase duration="66" state="rrGGGG"/>
        <phase duration="9" state="rryyyy"/>
        <phase duration="6" state="GGrrrr"/>
        <phase duration="9" state="yyrrrr"/>
    </tlLogic>
    <tlLogic id="1559476781" type="static" programID="0" offset="0">
        <phase duration="36" state="GGrrr"/>
        <phase duration="9" state="yyrrr"/>
        <phase duration="36" state="rrGGG"/>
        <phase duration="9" state="rryyy"/>
    </tlLogic>
    <tlLogic id="1559476783" type="static" programID="0" offset="0">
        <phase duration="36" state="GGGGrrrrGG"/>
        <phase duration="9" state="yyyyrrrryy"/>
        <phase duration="36" state="rrrrGGGGrr"/>
        <phase duration="9" state="rrrryyyyrr"/>
    </tlLogic>
    <tlLogic id="2721256048" type="static" programID="0" offset="0">
        <phase duration="41" state="GGrr"/>
        <phase duration="4" state="yyrr"/>
        <phase duration="41" state="rrGG"/>
        <phase duration="4" state="rryy"/>
    </tlLogic>
    <tlLogic id="296637207" type="static" programID="0" offset="0">
        <phase duration="66" state="GGGrr"/>
        <phase duration="9" state="yyyrr"/>
        <phase duration="6" state="rrrGG"/>
        <phase duration="9" state="rrryy"/>
    </tlLogic>
    <tlLogic id="296637218" type="static" programID="0" offset="0">
        <phase duration="41" state="GGrr"/>
        <phase duration="4" state="yyrr"/>
        <phase duration="41" state="rrGG"/>
        <phase duration="4" state="rryy"/>
    </tlLogic>
    <tlLogic id="296637225" type="static" programID="0" offset="0">
        <phase duration="41" state="GGrr"/>
        <phase duration="4" state="yyrr"/>
        <phase duration="41" state="rrGG"/>
        <phase duration="4" state="rryy"/>
    </tlLogic>
    <tlLogic id="296637233" type="static" programID="0" offset="0">
        <phase duration="41" state="GGrr"/>
        <phase duration="4" state="yyrr"/>
        <phase duration="41" state="rrGG"/>
        <phase duration="4" state="rryy"/>
    </tlLogic>
    <tlLogic id="296637256" type="static" programID="0" offset="0">
        <phase duration="36" state="GGGGGGrrrr"/>
        <phase duration="9" state="yyyyyyrrrr"/>
        <phase duration="36" state="rrrrrrGGGG"/>
        <phase duration="9" state="rrrrrryyyy"/>
    </tlLogic>
    <tlLogic id="296637281" type="static" programID="0" offset="0">
        <phase duration="36" state="GGrrr"/>
        <phase duration="9" state="yyrrr"/>
        <phase duration="36" state="rrGGG"/>
        <phase duration="9" state="rryyy"/>
    </tlLogic>
    <tlLogic id="296637288" type="static" programID="0" offset="0">
        <phase duration="36" state="GGrrr"/>
        <phase duration="9" state="yyrrr"/>
        <phase duration="36" state="rrGGG"/>
        <phase duration="9" state="rryyy"/>
    </tlLogic>
    <tlLogic id="296637299" type="static" programID="0" offset="0">
        <phase duration="66" state="rrrGGGG"/>
        <phase duration="9" state="rrryyyy"/>
        <phase duration="6" state="GGGrrrr"/>
        <phase duration="9" state="yyyrrrr"/>
    </tlLogic>
    <tlLogic id="296637337" type="static" programID="0" offset="0">
        <phase duration="74" state="GGGrGGrr"/>
        <phase duration="5" state="yyyryyrr"/>
        <phase duration="6" state="rrrGrrGG"/>
        <phase duration="5" state="rrryrryy"/>
    </tlLogic>
    <tlLogic id="296637359" type="static" programID="0" offset="0">
        <phase duration="40" state="GGGGGGrrr"/>
        <phase duration="5" state="yyyyyyrrr"/>
        <phase duration="40" state="rrrrrrGGG"/>
        <phase duration="5" state="rrrrrryyy"/>
    </tlLogic>
    <tlLogic id="296637430" type="static" programID="0" offset="0">
        <phase duration="36" state="GGGrrrr"/>
        <phase duration="9" state="yyyrrrr"/>
        <phase duration="36" state="rrrGGGG"/>
        <phase duration="9" state="rrryyyy"/>
    </tlLogic>
    <tlLogic id="296637438" type="static" programID="0" offset="0">
        <phase duration="36" state="GGrrrr"/>
        <phase duration="9" state="yyrrrr"/>
        <phase duration="36" state="rrGGGG"/>
        <phase duration="9" state="rryyyy"/>
    </tlLogic>
    <tlLogic id="296637447" type="static" programID="0" offset="0">
        <phase duration="36" state="GGrrr"/>
        <phase duration="9" state="yyrrr"/>
        <phase duration="36" state="rrGGG"/>
        <phase duration="9" state="rryyy"/>
    </tlLogic>
    <tlLogic id="296637510" type="static" programID="0" offset="0">
        <phase duration="41" state="GGrr"/>
        <phase duration="4" state="yyrr"/>
        <phase duration="41" state="rrGG"/>
        <phase duration="4" state="rryy"/>
    </tlLogic>
    <tlLogic id="296637521" type="static" programID="0" offset="0">
        <phase duration="41" state="GGrr"/>
        <phase duration="4" state="yyrr"/>
        <phase duration="41" state="rrGG"/>
        <phase duration="4" state="rryy"/>
    </tlLogic>
    <tlLogic id="296637528" type="static" programID="0" offset="0">
        <phase duration="41" state="GGrr"/>
        <phase duration="4" state="yyrr"/>
        <phase duration="41" state="rrGG"/>
        <phase duration="4" state="rryy"/>
    </tlLogic>
    <tlLogic id="296637539" type="static" programID="0" offset="0">
        <phase duration="41" state="GGrr"/>
        <phase duration="4" state="yyrr"/>
        <phase duration="41" state="rrGG"/>
        <phase duration="4" state="rryy"/>
    </tlLogic>
    <tlLogic id="296637549" type="static" programID="0" offset="0">
        <phase duration="66" state="rrGGG"/>
        <phase duration="9" state="rryyy"/>
        <phase duration="6" state="GGrrr"/>
        <phase duration="9" state="yyrrr"/>
    </tlLogic>
    <tlLogic id="296637610" type="static" programID="0" offset="0">
        <phase duration="41" state="GGrr"/>
        <phase duration="4" state="yyrr"/>
        <phase duration="41" state="rrGG"/>
        <phase duration="4" state="rryy"/>
    </tlLogic>
    <tlLogic id="296637617" type="static" programID="0" offset="0">
        <phase duration="36" state="GGGrr"/>
        <phase duration="9" state="yyyrr"/>
        <phase duration="36" state="rrrGG"/>
        <phase duration="9" state="rrryy"/>
    </tlLogic>
    <tlLogic id="296637664" type="static" programID="0" offset="0">
        <phase duration="41" state="Gr"/>
        <phase duration="4" state="yr"/>
        <phase duration="41" state="rG"/>
        <phase duration="4" state="ry"/>
    </tlLogic>
    <tlLogic id="296637748" type="static" programID="0" offset="0">
        <phase duration="41" state="GGrr"/>
        <phase duration="4" state="yyrr"/>
        <phase duration="41" state="rrGG"/>
        <phase duration="4" state="rryy"/>
    </tlLogic>
    <tlLogic id="296666546" type="static" programID="0" offset="0">
        <phase duration="36" state="GGGrr"/>
        <phase duration="9" state="yyyrr"/>
        <phase duration="36" state="rrrGG"/>
        <phase duration="9" state="rrryy"/>
    </tlLogic>
    <tlLogic id="296666558" type="static" programID="0" offset="0">
        <phase duration="36" state="GGrrr"/>
        <phase duration="9" state="yyrrr"/>
        <phase duration="36" state="rrGGG"/>
        <phase duration="9" state="rryyy"/>
    </tlLogic>
    <tlLogic id="296666580" type="static" programID="0" offset="0">
        <phase duration="36" state="GGGrr"/>
        <phase duration="9" state="yyyrr"/>
        <phase duration="36" state="rrrGG"/>
        <phase duration="9" state="rrryy"/>
    </tlLogic>
    <tlLogic id="296666597" type="static" programID="0" offset="0">
        <phase duration="36" state="GGGrr"/>
        <phase duration="9" state="yyyrr"/>
        <phase duration="36" state="rrrGG"/>
        <phase duration="9" state="rrryy"/>
    </tlLogic>
    <tlLogic id="296666602" type="static" programID="0" offset="0">
        <phase duration="36" state="GGGrr"/>
        <phase duration="9" state="yyyrr"/>
        <phase duration="36" state="rrrGG"/>
        <phase duration="9" state="rrryy"/>
    </tlLogic>
    <tlLogic id="296666606" type="static" programID="0" offset="0">	<!--128-->
        <phase duration="36" state="GGGrr"/>
        <phase duration="9" state="yyyrr"/>
        <phase duration="36" state="rrrGG"/>
        <phase duration="9" state="rrryy"/>
    </tlLogic>
    <tlLogic id="296666611" type="static" programID="0" offset="0">
        <phase duration="28" state="rrrrGGrrGGGr"/>
        <phase duration="9" state="rrrryyrryyyr"/>
        <phase duration="6" state="rrrrrrGGrrrG"/>
        <phase duration="9" state="rrrrrryyrrry"/>
        <phase duration="29" state="GGGGrrrrrrrr"/>
        <phase duration="9" state="yyyyrrrrrrrr"/>
    </tlLogic>
    <tlLogic id="296666683" type="static" programID="0" offset="0">
        <phase duration="41" state="GGrr"/>
        <phase duration="4" state="yyrr"/>
        <phase duration="41" state="rrGG"/>
        <phase duration="4" state="rryy"/>
    </tlLogic>
    <tlLogic id="296666688" type="static" programID="0" offset="0">
        <phase duration="41" state="GGrr"/>
        <phase duration="4" state="yyrr"/>
        <phase duration="41" state="rrGG"/>
        <phase duration="4" state="rryy"/>
    </tlLogic>
    <tlLogic id="296666691" type="static" programID="0" offset="0">
        <phase duration="41" state="GGrr"/>
        <phase duration="4" state="yyrr"/>
        <phase duration="41" state="rrGG"/>
        <phase duration="4" state="rryy"/>
    </tlLogic>
    <tlLogic id="296666695" type="static" programID="0" offset="0">
        <phase duration="28" state="GGGrrrrGGrr"/>
        <phase duration="9" state="yyyrrrryyrr"/>
        <phase duration="6" state="rrrGrrrrrGG"/>
        <phase duration="9" state="rrryrrrrryy"/>
        <phase duration="29" state="rrrrGGGrrrr"/>
        <phase duration="9" state="rrrryyyrrrr"/>
    </tlLogic>
    <tlLogic id="296666708" type="static" programID="0" offset="0">
        <phase duration="28" state="GGGrrrrGGrr"/>
        <phase duration="9" state="yyyrrrryyrr"/>
        <phase duration="6" state="rrrGrrrrrGG"/>
        <phase duration="9" state="rrryrrrrryy"/>
        <phase duration="29" state="rrrrGGGrrrr"/>
        <phase duration="9" state="rrrryyyrrrr"/>
    </tlLogic>
    <tlLogic id="296666714" type="static" programID="0" offset="0">
        <phase duration="28" state="rrrGGrrGGGr"/>
        <phase duration="9" state="rrryyrryyyr"/>
        <phase duration="6" state="rrrrrGGrrrG"/>
        <phase duration="9" state="rrrrryyrrry"/>
        <phase duration="29" state="GGGrrrrrrrr"/>
        <phase duration="9" state="yyyrrrrrrrr"/>
    </tlLogic>
    <tlLogic id="296666718" type="static" programID="0" offset="0">
        <phase duration="28" state="GGGrrrrGGrr"/>
        <phase duration="9" state="yyyrrrryyrr"/>
        <phase duration="6" state="rrrGrrrrrGG"/>
        <phase duration="9" state="rrryrrrrryy"/>
        <phase duration="29" state="rrrrGGGrrrr"/>
        <phase duration="9" state="rrrryyyrrrr"/>
    </tlLogic>
    <tlLogic id="296734855" type="static" programID="0" offset="0">
        <phase duration="41" state="GGrr"/>
        <phase duration="4" state="yyrr"/>
        <phase duration="41" state="rrGG"/>
        <phase duration="4" state="rryy"/>
    </tlLogic>
    <tlLogic id="296734861" type="static" programID="0" offset="0">
        <phase duration="41" state="GGrr"/>
        <phase duration="4" state="yyrr"/>
        <phase duration="41" state="rrGG"/>
        <phase duration="4" state="rryy"/>
    </tlLogic>
    <tlLogic id="296734867" type="static" programID="0" offset="0">
        <phase duration="41" state="GGrr"/>
        <phase duration="4" state="yyrr"/>
        <phase duration="41" state="rrGG"/>
        <phase duration="4" state="rryy"/>
    </tlLogic>
    <tlLogic id="296734871" type="static" programID="0" offset="0">
        <phase duration="41" state="GGrr"/>
        <phase duration="4" state="yyrr"/>
        <phase duration="41" state="rrGG"/>
        <phase duration="4" state="rryy"/>
    </tlLogic>
    <tlLogic id="296734874" type="static" programID="0" offset="0">
        <phase duration="41" state="GGrr"/>
        <phase duration="4" state="yyrr"/>
        <phase duration="41" state="rrGG"/>
        <phase duration="4" state="rryy"/>
    </tlLogic>
    <tlLogic id="296734897" type="static" programID="0" offset="0">
        <phase duration="41" state="GGrr"/>
        <phase duration="4" state="yyrr"/>
        <phase duration="41" state="rrGG"/>
        <phase duration="4" state="rryy"/>
    </tlLogic>
    <tlLogic id="296734906" type="static" programID="0" offset="0">
        <phase duration="41" state="GGrr"/>
        <phase duration="4" state="yyrr"/>
        <phase duration="41" state="rrGG"/>
        <phase duration="4" state="rryy"/>
    </tlLogic>
    <tlLogic id="296734909" type="static" programID="0" offset="0">	<!--202-->
        <phase duration="41" state="GGrr"/>
        <phase duration="4" state="yyrr"/>
        <phase duration="41" state="rrGG"/>
        <phase duration="4" state="rryy"/>
    </tlLogic>
    <tlLogic id="296734962" type="static" programID="0" offset="0">
        <phase duration="41" state="GGrr"/>
        <phase duration="4" state="yyrr"/>
        <phase duration="41" state="rrGG"/>
        <phase duration="4" state="rryy"/>
    </tlLogic>
    <tlLogic id="296734964" type="static" programID="0" offset="0">
        <phase duration="41" state="GGrr"/>
        <phase duration="4" state="yyrr"/>
        <phase duration="41" state="rrGG"/>
        <phase duration="4" state="rryy"/>
    </tlLogic>
    <tlLogic id="296734968" type="static" programID="0" offset="0">
        <phase duration="41" state="GGrr"/>
        <phase duration="4" state="yyrr"/>
        <phase duration="41" state="rrGG"/>
        <phase duration="4" state="rryy"/>
    </tlLogic>
    <tlLogic id="296734976" type="static" programID="0" offset="0">
        <phase duration="41" state="GGrr"/>
        <phase duration="4" state="yyrr"/>
        <phase duration="41" state="rrGG"/>
        <phase duration="4" state="rryy"/>
    </tlLogic>
    <tlLogic id="296734980" type="static" programID="0" offset="0">
        <phase duration="41" state="GGrr"/>
        <phase duration="4" state="yyrr"/>
        <phase duration="41" state="rrGG"/>
        <phase duration="4" state="rryy"/>
    </tlLogic>
    <tlLogic id="296734996" type="static" programID="0" offset="0">
        <phase duration="41" state="GGrr"/>
        <phase duration="4" state="yyrr"/>
        <phase duration="41" state="rrGG"/>
        <phase duration="4" state="rryy"/>
    </tlLogic>
    <tlLogic id="296735001" type="static" programID="0" offset="0">
        <phase duration="41" state="GGrr"/>
        <phase duration="4" state="yyrr"/>
        <phase duration="41" state="rrGG"/>
        <phase duration="4" state="rryy"/>
    </tlLogic>
    <tlLogic id="296735036" type="static" programID="0" offset="0">
        <phase duration="41" state="GGrr"/>
        <phase duration="4" state="yyrr"/>
        <phase duration="41" state="rrGG"/>
        <phase duration="4" state="rryy"/>
    </tlLogic>
    <tlLogic id="297133314" type="static" programID="0" offset="0">
        <phase duration="36" state="GGrr"/>
        <phase duration="9" state="yyrr"/>
        <phase duration="36" state="rrGG"/>
        <phase duration="9" state="rryy"/>
    </tlLogic>
    <tlLogic id="297139323" type="static" programID="0" offset="0">	<!--242-->
        <phase duration="41" state="GGrr"/>
        <phase duration="4" state="yyrr"/>
        <phase duration="41" state="rrGG"/>
        <phase duration="4" state="rryy"/>
    </tlLogic>

</additional>s