<routes xmlns:xsi="http://www.w3.org/2001/XMLSchema-instance" xsi:noNamespaceSchemaLocation="http://sumo.dlr.de/xsd/routes_file.xsd">
    <vType id="passenger" maxSpeed="50.00" vClass="passenger" />
    <vehicle depart="1.00" departLane="best" id="0" type="passenger">
        <route edges="-329022967#18 329022967#18 515156287#0 515156287#1 515156287#2 515156287#3 515156306 336634148#0 336634148#1 335584584 515156313#0 515156313#1 515156313#2 515156313#3 264550937 336634150 52242862 515156319 289004416#0 289004416#1 289004416#2 289004416#3 198874292#0 198874292#1 198874292#2 159980284#0 159980284#1 159980284#2 159980284#3 159980284#4 198874288#0 198874288#1 198874288#2 198874288#3 -25715401#4 -25715401#3 -25715401#2 157964878#9 157964878#10 157964878#11 157964878#12 157964878#13 268564474#3 268564474#4 297240250#12" />
    </vehicle>
    <vehicle depart="2.00" departLane="best" id="1" type="passenger">
        <route edges="198001762#0 198001762#1 198001762#2 261898534#2 261898534#3 -25715405#2 -25715405#1 -25715405#0 25715401#0 25715401#1 25715401#2 25715401#3 25715401#4 317839331#0 317839331#1 317839331#2 -317839331#2" />
    </vehicle>
    <vehicle depart="3.50" departLane="best" id="2" type="passenger">
        <route edges="229842085#1 229842085#2 229842085#3 229842085#4 229842085#5 229842085#6 244456586#0 244456586#1 244456586#2 244456586#3 262211599 229842825#0 229842825#1 229842825#2 229842825#3 229842825#4 229842825#5 262966699#0 262966699#1 262966699#2 262966699#3 414194145 414194146#0 414194146#1 414194146#2 229842826 334852295#0 334852295#1 334852294 334849017#0 334849017#1 334849017#2 334849017#3 334849016#0 334849016#1 -382808015#2 -382808015#1 -382808015#0 -261209292#3 -261209292#2 -261209292#1 -261209292#0 -199980015#3 -199980015#2 -199980015#1 -199980015#0 -51911170#9 -51911170#8 -51911170#7 -51911170#6 -51911170#5 -51911170#4 -51911170#3 -51911170#2 -51911170#1 -51911170#0 199980018 289246481#0 289246481#1 49184199#0 49184199#1 49184199#2 49184199#3 -407202553#0" />
    </vehicle>
    <vehicle depart="6.00" departLane="best" id="3" type="passenger">
        <route edges="238208426#1 238208426#2 367214988#0 367214988#1 367214988#2 367245164#0 367245164#1 244456578 336634150 52242862 515156319 229885657 318254709 384694135#0 384694135#1 264551743 515156300#0 515156300#1 515156300#2 407513573#0 407513573#1 407513573#2 -51423093#6 -51423093#5 -51423093#4" />
    </vehicle>
    <vehicle depart="8.00" departLane="best" id="4" type="passenger">
        <route edges="60730601#5 334852293#0 334852293#1 334852293#2 334852293#3 334852293#4 334852293#5 334852293#6 160307902#0 160307902#1 333293970 324482428#0 324482428#1 324482428#2 324482428#3 324482428#4 324482428#5 197662926#0 197662926#1 197662926#2 495522333#0 495522333#1 495522333#2 495522333#3 495522333#4 374960470#0 374960470#1 243317514#0 243317514#1 243317514#2 243317514#3 243317514#4 367214988#0 367214988#1 367214988#2 367245164#0 367245164#1 244456578 336634150 52242862 515156319 229885657 318254711 325213923 515156309#0 515156309#1 515156309#2 515156299 264551742#0 264551742#1 264551742#2 264551742#3 264551742#4 264551742#5 264551742#6 360851262#0 51423111#9 51423111#10 51423111#11 51423111#12 51423111#13" />
    </vehicle>
    <vehicle depart="9.50" departLane="best" id="5" type="passenger">
        <route edges="60730602#0 -60730602#0 60730601#0 51919208#1 51919208#2 51919208#3 51919208#4 51919208#5 397956114 397956111 495522333#0 495522333#1 495522333#2 495522333#3 495522333#4 374960470#0 374960470#1 243317514#0 243317514#1 243317514#2 243317514#3 243317514#4 367214988#0 367214988#1 367214988#2 367245164#0 367245164#1 244456578 336634150 52242862 515156319 289004416#0 289004416#1 289004416#2 289004416#3 198874292#0 198874292#1 198874292#2 192888504#0 192888504#1 192888504#2 267609455#0" />
    </vehicle>
    <vehicle depart="10.50" departLane="best" id="6" type="passenger">
        <route edges="22764010#1 22764010#2 238211714#0 238211714#1 238211714#2 238699273#0 238699273#1 238699273#2 238699273#3 179000190#0 179000190#1 238208424#0 238208424#1 238208424#2 238208424#3 238208424#4 -330804415#4 -330804415#3 -330804415#2 -330804415#1 -330804415#0 -293207793#4 -293207793#3 -293207793#2" />
    </vehicle>
    <vehicle depart="11.00" departLane="best" id="7" type="passenger">
        <route edges="-217690233 515156287#0 515156287#1 515156287#2 515156287#3 515156306 336634148#0 336634148#1 335584584 515156313#0 515156313#1 515156313#2 515156313#3 264550937 229885650#0 229885650#1 244456574#0 244456574#1 244456574#2 274809896#0 274809896#1 274809896#2 515166734#0 515166734#1 515166734#2 515166734#3 515166740#0 515166740#1 330804412#0 330804412#1 198725737#0 256186572#0 256186572#1 256186572#2 256186572#3 -198724107 -287735315 -244509935#2 -244509935#1 -244509935#0" />
    </vehicle>
    <vehicle depart="11.50" departLane="best" id="8" type="passenger">
        <route edges="260152352#3 260152352#4 260152352#5 260152352#6 260152352#7 24006853 506351875#0 506351875#1 445405189 24006860#12 24006860#13 51423119#0 51423119#1 51423119#2 51423119#3 506351852#0 506351852#1 506351852#2 506351852#3 506351852#4 506351852#5 506351852#6 506351852#7 506351814 506351832 306251261 310677986#0 310677986#1 310677986#2 310677986#3 189615571#0 189615571#1 189615571#2 189615571#3 407202550#0 407202550#1 407202550#2 199239731#0 199239731#1 199239731#2 199239741#0 199239741#1 199239741#2 -199980018 199239734#0 199239734#1 40606341#0 40606341#1 441378955#0 441378955#1 441378955#2 441378955#3 -287316014 -334849019#3 -334849019#2 -334849019#1 -334849019#0 -449290531#2 -449290531#1 -449290531#0 449290532 334849017#1 334849017#2 334849017#3 334849016#0 334849016#1" />
    </vehicle>
    <vehicle depart="12.00" departLane="best" id="9" type="passenger">
        <route edges="690800457#4 -690800457#4 -690800457#3 51885059#0 51885059#1 515156284#3 515156284#4 515156284#5 515156284#6 515156284#7 310677980 310620429#0 310620429#1 310620429#2 310620429#3 310620429#4 310620429#5 515156287#0 515156287#1 515156287#2 515156287#3 515156305#0 515156305#1 515156305#2 515156305#3 244450453#0 244450453#1 244450453#2 244450453#3 244450453#4 33679832#0 33679832#1" />
    </vehicle>
    <vehicle depart="12.50" departLane="best" id="10" type="passenger">
        <route edges="-334849019#1 334849019#1 334849019#2 334849019#3 287316014 287316013#0 287316013#1 287316013#2 287316013#3 4860359#3 4860359#4 4860359#5 4860359#6 455330015#0 455330015#1 244450535#0 244450535#1 244450535#2 298630661#0 298630661#1 298630661#2 241518682 243317514#0 243317514#1 243317514#2 243317514#3 243317514#4 367214988#0 367214988#1 367214988#2 367245164#0 367245164#1 137195740#0 137195740#1 244456574#0 244456574#1 244456574#2 274809896#0 274809896#1 274809896#2 515166734#0 515166734#1 515166734#2 515166734#3 515166740#0 515166740#1 330804412#0 330804412#1 198725737#0 198725737#1 198725737#2 198725737#3 29251608#0 29251608#1 -333263680#0 22764020#2 22764020#3 22764020#4" />
    </vehicle>
    <vehicle depart="13.50" departLane="best" id="11" type="passenger">
        <route edges="407202572#1 -407202572#1 -407202572#0 -287316013#4 4860359#3 4860359#4 4860359#5 4860359#6 455330015#0 455330015#1 244450535#0 244450535#1 244450535#2 298630661#0 298630661#1 298630661#2 241518672#0 241518672#1 455330016#0 455330016#1 455330016#2 374960471 462808824 264995112#0 264995112#1 462399812 334852289 52513624#0 52513624#1 52513624#2 287327325#0 287327325#1 244450327#0 244450327#1 244450327#2 244450327#3 244450327#4 334852287#0 334852287#1 334852287#2 334852287#3 334852287#4 334852287#5 334852287#6 334852287#7 334852287#8 334852287#9 366116366#0 366116366#1 366116366#2 366116366#3 366116366#4 366116366#5 160307905#0 29395277#4 29395277#5 29395277#6 468047667 243317509#0 243317509#1 243317509#2" />
    </vehicle>
    <vehicle depart="14.00" departLane="best" id="12" type="passenger">
        <route edges="48794913#0 48794913#1 48794913#2 48794913#3 267659928#0 267659928#1 -182335534#3 -182335534#2 -182335534#1 -182335534#0 -229844763#8 -229844763#7 -229844763#6 -229844763#5 -229844763#4 -229844763#3 -229844763#2 -229844763#1 -229844763#0 -317839331#3 -317839331#2 -317839331#1 -317839331#0 -198874288#3 -198874288#2 -198874288#1 -198874288#0 -159980284#4 -159980284#3 -159980284#2 -159980284#1 -159980284#0 51423111#0 51423111#1 51423111#2 51423111#3 51423111#4 51423111#5 51423111#6 51423111#7 51423111#8" />
    </vehicle>
    <vehicle depart="16.50" departLane="best" id="13" type="passenger">
        <route edges="198414876#1 -198414876#1 -198414876#0 -238208422#6 -238208422#5 -238208422#4 -238208422#3 -238208422#2 238208422#2" />
    </vehicle>
    <vehicle depart="18.50" departLane="best" id="14" type="passenger">
        <route edges="160279691#3 333279724 60787472#0 60787472#1 268564472#0 268564472#1 -197315982#1 -197315982#0 197315982#0" />
    </vehicle>
    <vehicle depart="19.50" departLane="best" id="15" type="passenger">
        <route edges="334852287#0 334852287#1 334852287#2 334852287#3 334852287#4 334852287#5 334852287#6 334852287#7 334852287#8 334852287#9 366116371#0 366116371#1 443580489#0 443580489#1 443580489#2 443580489#3 312603791#0 312603791#1 312603791#2 312603791#3 312603791#4 312603791#5 -255431330 -262966701 -255431331#2 -255431331#1 -255431331#0 -334849014 -265002098#1 -265002098#0" />
    </vehicle>
    <vehicle depart="20.00" departLane="best" id="16" type="passenger">
        <route edges="268564474#0 -268564474#0 -317839331#3 -317839331#2 -317839331#1 -317839331#0 269789739#0 269789739#1 269789739#2 269789739#3 269789739#4 269789739#5 269789739#6 269789739#7 269789739#8 269789739#9 269789739#10 269789739#11 269789739#12 269789739#13 269789739#14 269789739#15 269789739#16 515166738#0 515166738#1 515166738#2 515166738#3 515166738#4 330745380#0 330745380#1 330745380#2 229885657 318254711 325213930 52242861 264550938#0 264550938#1 335584585#0 335584585#1 303413198#0 303413198#1 336634151#0 336634151#1 355791336 241518672#0 241518672#1 455330016#0 455330016#1 455330016#2 374960471 462808824 264995112#0 264995112#1 462399812 334852289 52513624#0 52513624#1 52513624#2 287327325#0 287327325#1 244450327#0 244450327#1 244450327#2 244450327#3 244450327#4 160307902#0 160307902#1 333293970" />
    </vehicle>
    <vehicle depart="21.00" departLane="best" id="17" type="passenger">
        <route edges="-255247886#1 255247886#1 255247886#2 255247886#3 244509935#0 244509935#1 244509935#2 269502155#0 269502155#1 269502155#2 269502155#3 269502155#4 198725737#2 198725737#3 198725737#4 198725737#5 198725737#6 198725737#7 198725737#8 198725737#9 198725737#10 49795875#0 49795875#1 49795875#2 49795875#3 49795875#4 49795875#5 49795875#6 229844765#0 229844765#1 229844765#2 229844765#3 229844765#4 -269789739#16 -269789739#15 -269789739#14 -269789739#13 -269789739#12 -269789739#11 -269789739#10 -269789739#9 -269789739#8 -269789739#7 -269789739#6 -269789739#5 -269789739#4 -269789739#3 -269789739#2 -269789739#1 -269789739#0 -198874288#3 -198874288#2 -198874288#1 -198874288#0 -25715400#8 -25715400#7 -25715400#6 -25715400#5 -25715400#4 -25715400#3 -25715400#2" />
    </vehicle>
    <vehicle depart="22.00" departLane="best" id="18" type="passenger">
        <route edges="238699263#3 238699269#0 238699269#1 238699269#2 238699269#3 238699269#4 238699273#0 238699273#1 279397396#0 279397396#1 293071598#0" />
    </vehicle>
    <vehicle depart="24.50" departLane="best" id="19" type="passenger">
        <route edges="334852287#6 334852287#7 334852287#8 334852287#9 366116366#0 160279691#2 160279691#3 333279724 244509933 52513625#0 52513625#1 52513625#2 52513625#3 52513625#4 52513625#5 52513625#6 52513625#7 52513625#8 324482428#0 324482428#1 324482428#2 324482428#3 324482428#4 324482428#5 197662926#0 197662926#1 197662926#2 495522333#0 495522333#1 495522333#2 681395580 31462910#0 31462910#1 31462910#2 -338922082 -31051190#6 -31051190#5 -31051190#4 -31051190#3 -31051190#2 -31051190#1 -31051190#0 -51911170#9 -51911170#8 -51911170#7 -51911170#6 -51911170#5 -51911170#4 -51911170#3 -51911170#2 -51911170#1 -51911170#0 199980018 289246481#0 289246481#1 49184199#0 49184199#1 49184199#2 49184199#3 -407202553#0 -4947947#9 -4947947#8 -4947947#7 -4947947#6 -4947947#5 -4947947#4 -4947947#3 4947947#3" />
    </vehicle>
    <vehicle depart="25.50" departLane="best" id="20" type="passenger">
        <route edges="60720745#2 197130375#2 197130375#3 197130375#4 197130375#5 414194145 414194146#0 414194146#1 414194146#2 229842826 334852295#0 334852295#1 334852294 334849017#0 334849017#1 334849017#2 334849017#3 334849016#0 334849016#1 -382808015#2 -382808015#1 -382808015#0 -261209292#3 -261209292#2 -261209292#1 -261209292#0 -199980015#3 -199980015#2 -199980015#1 -199980015#0 -51911170#9 -51911170#8 -51911170#7 -51911170#6 -51911170#5 -51911170#4 -51911170#3 -51911170#2 -51911170#1 -51911170#0 199980018 289246481#0 289246481#1 49184199#0 49184199#1 49184199#2 49184199#3 -407202553#0 199239731#0" />
    </vehicle>
    <vehicle depart="26.00" departLane="best" id="21" type="passenger">
        <route edges="160307905#1 334849013 243317512#0 243317512#1 243317512#2 243317512#3 244509933 52513625#0 52513625#1 52513625#2 52513625#3 52513625#4 52513625#5 52513625#6 52513625#7 52513625#8 324482428#0 324482428#1 324482428#2 324482428#3 324482428#4 324482428#5 197662926#0 197662926#1 197662926#2 495522333#0 495522333#1 495522333#2 495522333#3 495522333#4 374960470#0 374960470#1 243317514#0 243317514#1 243317514#2 243317514#3 243317514#4 367214988#0 367214988#1 367214988#2 367245164#0 367245164#1 244456578 336634150 52242862 515156319 229885657 318254709 384694135#0 384694135#1 264551743 515156300#0 515156300#1 515156300#2 407513573#0 407513573#1 407513573#2 51423093#7" />
    </vehicle>
    <vehicle depart="27.00" departLane="best" id="22" type="passenger">
        <route edges="244450456#6 449290531#0 449290531#1 449290531#2 334849019#0 334849019#1 334849019#2 334849019#3 287316014 -31051190#3 -31051190#2 -31051190#1 -31051190#0 -51911170#9 -51911170#8 -51911170#7 -51911170#6 -51911170#5 -51911170#4 -51911170#3 -51911170#2 -51911170#1 -51911170#0 199980018 289246481#0 289246481#1 49184199#0 49184199#1 49184199#2 49184199#3 49184199#4 49184199#5 226831239#0 226831239#1 226831239#2 226831239#3 226831239#4 189615568#0 189615568#1 506351786#0 506351786#1 506351786#2 506351821 401523526 506351837 306251259#0 306251259#1 51423093#0 51423093#1 51423093#2 51423093#3" />
    </vehicle>
    <vehicle depart="27.50" departLane="best" id="23" type="passenger">
        <route edges="515166734#2 515166734#3 515166740#0 515166740#1 330804412#0 330804412#1 198725737#0 256186572#0 256186572#1 256186572#2 256186572#3 269502157#0 269502157#1 269502157#2 317410455 -246651378#0 -270025400#3 -270025400#2 -270025400#1 -270025400#0 268564486#0 268564486#1 303413199#0 303413199#1 303413199#2 303413199#3 303413199#4 303413199#5 303413199#6 303413199#7 303413199#8 303413199#9 462399811 105496781#0 105496781#1 366116371#0 366116371#1 443580489#0 443580489#1 443580489#2 443580489#3 312603791#0 312603791#1 312603791#2 312603791#3 312603791#4 312603791#5 -255431330 -262966701 -255431331#2 -255431331#1 -255431331#0 -334849014 -265002098#1 -265002098#0 -325213929#3 -325213929#2 -325213929#1 -325213929#0 -264995556#3 -264995556#2" />
    </vehicle>
    <vehicle depart="28.50" departLane="best" id="24" type="passenger">
        <route edges="51919245#0 51919245#1 51919245#2 563927216#2 563927216#3 334852287#4 334852287#5 334852287#6 334852287#7 334852287#8 334852287#9 366116366#0 160279691#2 160279691#3 333279724 60787472#0 60787472#1 268564470#0 268564470#1 270025385#0 270025385#1 270025385#2 60787467#0 60787467#1 60787467#2" />
    </vehicle>
    <vehicle depart="29.50" departLane="best" id="25" type="passenger">
        <route edges="515156306 336634148#0 336634148#1 335584584 515156313#0 515156313#1 515156313#2 515156313#3 264550937 336634150 52242862 515156319 289004416#0 289004416#1 289004416#2 289004416#3 198874292#0 198874292#1 198874292#2 159980284#0 159980284#1 159980284#2 159980284#3 159980284#4 198874288#0 198874288#1 198874288#2 198874288#3 317839331#0 317839331#1 317839331#2 317839331#3 229844763#0 -229844763#0" />
    </vehicle>
    <vehicle depart="31.00" departLane="best" id="26" type="passenger">
        <route edges="303413199#7 303413199#8 303413199#9 462399811 105496781#0 105496781#1 366116371#0 366116371#1 443580489#0 443580489#1 443580489#2 443580489#3 312603791#0 312603791#1 312603791#2 312603791#3 312603791#4 312603791#5 -255431330 -262966701 -255431331#2 -255431331#1 -255431331#0 -29043695#5 -29043695#4 -29043695#3 -29043695#2 -29043695#1 -29043695#0" />
    </vehicle>
    <vehicle depart="32.00" departLane="best" id="27" type="passenger">
        <route edges="-312725560#2 312725560#2 303647015#7 303647015#8 303647015#9 303647015#10 360851263#0 360851263#1 360851263#2 360851263#3 360851263#4 360851263#5 360851263#6 515156300#0 515156300#1 515156300#2 -515156291 -515156289" />
    </vehicle>
    <vehicle depart="33.50" departLane="best" id="28" type="passenger">
        <route edges="131473112#0 131473112#1 131473112#2 413949761#7 242632926#3 242632926#4 131457243#0 131457243#1 131457243#2 131457243#3 131457243#4 131457243#5 131457243#6 131457243#7 198725737#9 198725737#10 198725737#11 198725737#12 198725737#13 198725737#0 198725737#1 198725737#2 198725737#3 29251608#0 29251608#1" />
    </vehicle>
    <vehicle depart="34.00" departLane="best" id="29" type="passenger">
        <route edges="82387304#4 -82387304#4 -82387304#3 -82387304#2 -82387304#1 -82387304#0 -199980015#0 31051190#0 31051190#1 31051190#2 31051190#3 287316013#0 287316013#1 287316013#2 287316013#3 4860359#3 4860359#4 4860359#5 4860359#6 455330015#0 455330015#1 244450535#0 244450535#1 244450535#2 298630661#0 298630661#1 298630661#2 241518682 243317514#0 243317514#1 243317514#2 243317514#3 243317514#4 367214988#0 367214988#1 367214988#2 367245164#0 98562079 -270439718 270439718" />
    </vehicle>
    <vehicle depart="34.50" departLane="best" id="30" type="passenger">
        <route edges="310677986#0 310677986#1 310677986#2 310677986#3 189615571#0 189615571#1 189615571#2 189615571#3 407202550#0 289246486#4 5117999#0 5117999#1 5117999#2 5117999#3 5117999#4 5117999#5 5117999#6 5117999#7 5117999#8 5117999#9 5117999#10 5117999#11 5117999#12 5117999#13 5117999#14 244450453#0 244450453#1 244450453#2 244450453#3 244450453#4 244450453#5 244450453#6 244450453#7 668070773 501772321 455330015#0 455330015#1 244450535#0 244450535#1 244450535#2 298630661#0 298630661#1 298630661#2 241518672#0 241518672#1 455330016#0 455330016#1 455330016#2 374960471 462808824 264995112#0 264995112#1 462399812 334852289 52513624#0 52513624#1 52513624#2 287327325#0 287327325#1 244450327#0 244450327#1 244450327#2 244450327#3 244450327#4 334852287#0 334852287#1 334852287#2 334852287#3 334852287#4 334852287#5 334852287#6 334852287#7 334852287#8 334852287#9 366116366#0 366116366#1 366116366#2 366116366#3 366116366#4 366116366#5 -334849020#11 -334849020#10 -334849020#9 -334849020#8 -334849020#7 -334849020#6 -334849020#5 -334849020#4 333293968#2 333293968#3 60787457#0 60787457#1 60787457#2 60787457#3 60787457#4" />
    </vehicle>
    <vehicle depart="36.50" departLane="best" id="31" type="passenger">
        <route edges="157964878#10 157964878#11 157964878#12 157964878#13 -268564474#2 -268564474#1 -268564474#0 -317839331#3 -317839331#2 -317839331#1 -317839331#0 -198874288#3 -198874288#2 -198874288#1 -198874288#0 -159980284#4 -159980284#3 -159980284#2 -159980284#1 -159980284#0 51423111#0 51423111#1 51423111#2 51423111#3 51423111#4 51423111#5 26697218#3 26697218#4 26697218#5 -232106525#4" />
    </vehicle>
    <vehicle depart="37.00" departLane="best" id="32" type="passenger">
        <route edges="288878933#1 288878933#2 506351882 51423119#0 51423119#1 51423119#2 51423119#3 506351852#0 506351852#1 506351852#2 506351852#3 506351852#4 506351852#5 506351852#6 506351852#7 506351814 506351832 306251261 310677986#0 310677986#1 310677986#2 310677986#3 189615571#0 189615571#1 189615571#2 189615571#3 199239738#0 199239738#1 199239738#2 199239738#3 199239738#4 -82994199#5 289246486#2" />
    </vehicle>
    <vehicle depart="39.00" departLane="best" id="33" type="passenger">
        <route edges="515156286 515156284#0 515156284#1 515156284#2 515156284#3 515156284#4 515156284#5 515156284#6 515156284#7 310677980 506351821 401523526 506351837 306251259#0 306251259#1 306251259#2 306251259#3 306251259#4 506351857 244454469#0 244454469#1 244454469#2 244454469#3 51289046#0 51289046#1 51289046#2 51289046#3 51289046#4 51289046#5 -289004415#7 289004415#7" />
    </vehicle>
    <vehicle depart="39.50" departLane="best" id="34" type="passenger">
        <route edges="154829882#1 154829882#2 182973464#5 182973464#6 182973464#7 297240250#3 297240250#4 297240250#5 297240250#6 297240250#7 297240250#8 -131473109#3 -131473109#2 -131473109#1 -131473109#0 -131473129#2 -131473129#1" />
    </vehicle>
    <vehicle depart="41.00" departLane="best" id="35" type="passenger">
        <route edges="82387315#2 367214998#0 367214998#1 367214998#2 244450462 557913218 336634148#0 336634148#1 335584584 515156313#0 515156313#1 515156313#2 515156313#3 264550937 336634150 52242862 515156319 289004416#0 289004416#1 289004416#2 289004416#3 198874292#0 198874292#1 198874292#2 192888504#0 192888504#1 192888504#2 267609455#0 267609455#1 -267609453#3 267609453#3" />
    </vehicle>
    <vehicle depart="42.00" departLane="best" id="36" type="passenger">
        <route edges="515166752#0 515166752#1 515166745 241811768#0 -241811768#0 -515166745 -515166743 515166742#0 515166742#1 515166749#0 515166749#1 198725737#13 198725737#0 256186572#0 256186572#1 256186572#2 256186572#3 269502157#0 269502157#1 269502157#2 317410455 -246651378#0 -270025400#3 -270025400#2 -270025400#1 -270025400#0 270025400#0" />
    </vehicle>
    <vehicle depart="42.50" departLane="best" id="37" type="passenger">
        <route edges="-82994199#1 82994199#1 82994199#2 4947947#6 4947947#7 4947947#8 4947947#9 199239731#0 199239731#1 199239731#2 199239741#0 199239741#1 199239741#2 -199980018 199239734#0 199239734#1 4860359#0 4860359#1 4860359#2 4860359#3 4860359#4 4860359#5 4860359#6 455330015#0 455330015#1 244450535#0 244450535#1 244450535#2 298630661#0 298630661#1 298630661#2 241518672#0 241518672#1 455330016#0 455330016#1 455330016#2 374960471 462808824 264995112#0 264995112#1 462399812 334852289 52513624#0 52513624#1 52513624#2 287327325#0 287327325#1 244450327#0 244450327#1 244450327#2 244450327#3 244450327#4 334852287#0 334852287#1 334852287#2 334852287#3 334852287#4 334852287#5 334852287#6 334852287#7 334852287#8 334852287#9 366116366#0 366116366#1 366116366#2 366116366#3 366116366#4 366116366#5 -334849020#11 -334849020#10 -334849020#9 -334849020#8 -334849020#7 -334849020#6 -284566179 60787464#0 60787464#1 60787464#2 60787464#3 -237121377#6 -237121377#5 -237121377#4 -237121377#3 -237121377#2" />
    </vehicle>
    <vehicle depart="43.50" departLane="best" id="38" type="passenger">
        <route edges="232326530#1 268564472#0 268564472#1 -197315982#1 -197315982#0 243317512#2 243317512#3 244509933 52513625#0 52513625#1 52513625#2 52513625#3 52513625#4 52513625#5 52513625#6 52513625#7 52513625#8 324482434#0" />
    </vehicle>
    <vehicle depart="44.00" departLane="best" id="39" type="passenger">
        <route edges="157964878#19 157964878#20 157964878#21 131457243#2 131457243#3 131457243#4 131457243#5 131457243#6 131457243#7 198725737#9 198725737#10 49795875#0 49795875#1 49795875#2 49795875#3 49795875#4 49795875#5 49795875#6 229844765#0 229844765#1 229844765#2 229844765#3 229844765#4 515166738#0 515166738#1 515166738#2 515166738#3 515166738#4 330745380#0 330745380#1 330745380#2 229885657 318254711 325213930 52242861 264550938#0 264550938#1 335584585#0 335584585#1 303413198#0 303413198#1 336634151#0 336634151#1 355791336 241518672#0 241518672#1 455330016#0 455330016#1 455330016#2 374960471 462808824 264995112#0 264995112#1 462399812 334852289 52513624#0 52513624#1 52513624#2 287327325#0 287327325#1 244450545#0 244450545#1" />
    </vehicle>
    <vehicle depart="45.00" departLane="best" id="40" type="passenger">
        <route edges="-287735315 287735315 198724107 269502157#0 269502157#1 269502157#2 317410455 246651378#1 262844198#0 262844198#1 262844198#2 -312929530#1 -312929530#0 312929522#0 312929522#1 312929522#2 -312929522#2" />
    </vehicle>
    <vehicle depart="45.50" departLane="best" id="41" type="passenger">
        <route edges="509695170#5 509695170#6 279397396#8 563927216#0 563927216#1 563927216#2 563927216#3 334852287#4 334852287#5 334852287#6 334852287#7 334852287#8 334852287#9 366116371#0 366116371#1 443580489#0 443580489#1 443580489#2 443580489#3 312603791#0 312603791#1 312603791#2 312603791#3 312603791#4 312603791#5 -255431330 -262966701 -255431331#2 -255431331#1 -255431331#0 -29043695#5 -29043695#4 -29043695#3 29043695#3" />
    </vehicle>
    <vehicle depart="47.00" departLane="best" id="42" type="passenger">
        <route edges="-329022967#3 -329022967#2 -329022967#1 -329022967#0 -407202572#2 -407202572#1 -407202572#0 -287316013#4 -287316013#3 -287316013#2 -287316013#1 -287316013#0 287316013#0" />
    </vehicle>
    <vehicle depart="47.50" departLane="best" id="43" type="passenger">
        <route edges="182973464#5 182973464#6 182973464#7 297240250#3 297240250#4 297240250#5 297240250#6 297240250#7 297240250#8 297240250#9 297240250#10 297240250#11 297240250#12 297240250#13 297240250#14 297240250#15 297240250#16 297240250#17 297240250#18 297240250#19 297240250#20 297240250#21 297240250#22 297339418 238526526#0 238526526#1 238526526#2 238526526#3 506322839#0 506322839#1 506322839#2 51423111#1 51423111#2 51423111#3 51423111#4 51423111#5 51423111#6 51423111#7 51423111#8 51423111#9 51423111#10 51423111#11 51423111#12 51423111#13 51423111#14 51423111#15 51423111#16 51423111#17 51423111#18 51423111#19 51423111#20 51423111#21 506351842 506351847#0 506351847#1 51885181#0 51885181#1 51885181#2 51885181#3 308987019#0 308987019#1 308987019#2 -308976804#10 -308976804#9 -308976804#8 308976804#8" />
    </vehicle>
    <vehicle depart="48.00" departLane="best" id="44" type="passenger">
        <route edges="308976804#4 308976804#5 308976804#6 24006860#6 24006860#7 24006860#8 24006860#9 24006860#10 24006860#11 24006860#12 24006860#13 51423119#0 51423119#1 51423119#2 51423119#3 506351852#0 506351852#1 506351852#2 506351852#3 506351852#4 506351852#5 506351852#6 506351852#7 506351814 506351832 306251261 310677986#0 310677986#1 310677986#2 310677986#3 189615571#0 189615571#1 189615571#2 189615571#3 407202550#0 289246486#4 5117999#0 5117999#1 5117999#2 5117999#3 5117999#4 5117999#5 5117999#6 5117999#7 329022967#5 329022967#6" />
    </vehicle>
    <vehicle depart="48.50" departLane="best" id="45" type="passenger">
        <route edges="563927216#1 51919245#3 51919245#4 51919245#5 333293970 324482428#0 324482428#1 324482428#2 324482428#3 324482428#4 324482428#5 197662926#0 197662926#1 197662926#2 495522333#0 495522333#1 495522333#2 681395580 31462910#0 31462910#1 31462910#2 -338922082 -31051190#6 -31051190#5 -31051190#4 -31051190#3 -31051190#2 -31051190#1 -31051190#0 -51911170#9 -51911170#8 -51911170#7" />
    </vehicle>
    <vehicle depart="49.00" departLane="best" id="46" type="passenger">
        <route edges="238699273#3 179000190#0 179000190#1 238208424#0 238208424#1 238208424#2 238208424#3 238208424#4 238208422#0 238208422#1 238208422#2 238208422#3 238208422#4 238208422#5 238208422#6 198414876#0 198414876#1 198414876#2 198414876#3 198414876#4 198414876#5 367245164#0 367245164#1 244456578 336634150 52242862 515156319 229885657 318254711 325213923 515156309#0 515156309#1 515156309#2 515156299 264551742#0 264551742#1 264551742#2 264551742#3 264551742#4 264551742#5 264551742#6 360851262#0 51423111#9 51423111#10 51423111#11 51423111#12 51423111#13 51423111#14 51423111#15 51423111#16 51423111#17 51423111#18 51423111#19 51423111#20 51423111#21 506351842 506351847#0 506351847#1 51885181#0 51885181#1 51885181#2 51885181#3 308987019#0 51885134#0 51885134#1" />
    </vehicle>
    <vehicle depart="49.50" departLane="best" id="47" type="passenger">
        <route edges="506351875#8 506351875#9 308976804#6 308976804#7 308976804#8 308976804#9 308976804#10 308976804#11 468047663 468047662 515156286 515156284#0 515156284#1 515156284#2 515156284#3 515156284#4 515156284#5 515156284#6 515156284#7 310677980 310620429#0 310620429#1 310620429#2 310620429#3 310620429#4 310620429#5 515156287#0 515156287#1 515156287#2 515156287#3 515156306 336634148#0 336634148#1 335584584 515156313#0 515156313#1 515156313#2 515156313#3 264550938#0 264550938#1 335584585#0 335584585#1 303413198#0 303413198#1 336634151#0 336634151#1 355791336 241518672#0 241518672#1 455330016#0 455330016#1 455330016#2 374960471 462808824 264995112#0 264995112#1 462399812 334852289 52513624#0 52513624#1 52513624#2 287327325#0 287327325#1 244450327#0 244450327#1 244450327#2 244450327#3 244450327#4 334852287#0 334852287#1 334852287#2 334852287#3 334852287#4 334852287#5 334852287#6 334852287#7 334852287#8 334852287#9 366116371#0 366116371#1 443580489#0 443580489#1 443580489#2 443580489#3 312603791#0 288351091#0 288351091#1 288351091#2 288351091#3 288351091#4" />
    </vehicle>
    <vehicle depart="50.00" departLane="best" id="48" type="passenger">
        <route edges="157964878#16 -131473109#0 -131473129#2 -131473129#1 -131473129#0 -229844763#4 -229844763#3 -229844763#2 -229844763#1 -229844763#0 -317839331#3 -317839331#2 -317839331#1 -317839331#0 -198874288#3 -198874288#2 -198874288#1 -198874288#0 -159980284#4 -159980284#3 -159980284#2 -159980284#1 -159980284#0 51423111#0 51423111#1 51423111#2 51423111#3 51423111#4 51423111#5 26697218#3 26697218#4 26697218#5 -232106525#4" />
    </vehicle>
    <vehicle depart="51.50" departLane="best" id="49" type="passenger">