<?xml version="1.0"?>
<!-- generated on 2019-06-29 22:17:11.816923 by $Id: randomTrips.py 23999 2017-04-21 09:04:47Z behrisch $
  options: -n map.net.xml -r map.rou.xml -e 500 -p 0.5 <doubleminus>trip-attributes=departLane="best" type="passenger" <doubleminus>additional-file type.add.xml
-->
<routes xmlns:xsi="http://www.w3.org/2001/XMLSchema-instance" xsi:noNamespaceSchemaLocation="http://sumo.dlr.de/xsd/routes_file.xsd">
    <trip id="0" depart="0.00" from="243317510#9" to="243317509#2" departLane="best" type="passenger"/>
    <trip id="1" depart="0.50" from="243317510#3" to="-229842825#0" departLane="best" type="passenger"/>
    <trip id="2" depart="1.00" from="-329022967#18" to="297240250#12" departLane="best" type="passenger"/>
    <trip id="3" depart="1.50" from="329022967#14" to="105822444#0" departLane="best" type="passenger"/>
    <trip id="4" depart="2.00" from="198001762#0" to="-317839331#2" departLane="best" type="passenger"/>
    <trip id="5" depart="2.50" from="154829894#5" to="-25715400#2" departLane="best" type="passenger"/>
    <trip id="6" depart="3.00" from="60730645#6" to="33679741#21" departLane="best" type="passenger"/>
    <trip id="7" depart="3.50" from="229842085#1" to="-407202553#0" departLane="best" type="passenger"/>
    <trip id="8" depart="4.00" from="51919180#1" to="201280842#2" departLane="best" type="passenger"/>
    <trip id="9" depart="4.50" from="-51885102#1" to="50823701#2" departLane="best" type="passenger"/>
    <trip id="10" depart="5.00" from="407513573#2" to="229843038#4" departLane="best" type="passenger"/>
    <trip id="11" depart="5.50" from="289004416#3" to="334849018" departLane="best" type="passenger"/>
    <trip id="12" depart="6.00" from="238208426#1" to="-51423093#4" departLane="best" type="passenger"/>
    <trip id="13" depart="6.50" from="-60787464#0" to="25715401#0" departLane="best" type="passenger"/>
    <trip id="14" depart="7.00" from="-51911170#3" to="131473142#6" departLane="best" type="passenger"/>
    <trip id="15" depart="7.50" from="407202550#1" to="33679537#1" departLane="best" type="passenger"/>
    <trip id="16" depart="8.00" from="60730601#5" to="51423111#13" departLane="best" type="passenger"/>
    <trip id="17" depart="8.50" from="262211596#0" to="261898534#0" departLane="best" type="passenger"/>
    <trip id="18" depart="9.00" from="-60787453#1" to="198725737#2" departLane="best" type="passenger"/>
    <trip id="19" depart="9.50" from="60730602#0" to="267609455#0" departLane="best" type="passenger"/>
    <trip id="20" depart="10.00" from="-247027459#4" to="31051190#6" departLane="best" type="passenger"/>
    <trip id="21" depart="10.50" from="22764010#1" to="-293207793#2" departLane="best" type="passenger"/>
    <trip id="22" depart="11.00" from="-217690233" to="-244509935#0" departLane="best" type="passenger"/>
    <trip id="23" depart="11.50" from="260152352#3" to="334849016#1" departLane="best" type="passenger"/>
    <trip id="24" depart="12.00" from="690800457#4" to="33679832#1" departLane="best" type="passenger"/>
    <trip id="25" depart="12.50" from="-334849019#1" to="22764020#4" departLane="best" type="passenger"/>
    <trip id="26" depart="13.00" from="260152352#0" to="-51911170#4" departLane="best" type="passenger"/>
    <trip id="27" depart="13.50" from="407202572#1" to="243317509#2" departLane="best" type="passenger"/>
    <trip id="28" depart="14.00" from="48794913#0" to="51423111#8" departLane="best" type="passenger"/>
    <trip id="29" depart="14.50" from="29043695#1" to="197130375#5" departLane="best" type="passenger"/>
    <trip id="30" depart="15.00" from="50823701#1" to="493157924" departLane="best" type="passenger"/>
    <trip id="31" depart="15.50" from="-238208422#5" to="270025378" departLane="best" type="passenger"/>
    <trip id="32" depart="16.00" from="493157924" to="199980018" departLane="best" type="passenger"/>
    <trip id="33" depart="16.50" from="198414876#1" to="238208422#2" departLane="best" type="passenger"/>
    <trip id="34" depart="17.00" from="82994197#0" to="334849020#11" departLane="best" type="passenger"/>
    <trip id="35" depart="17.50" from="-329022967#8" to="199239738#4" departLane="best" type="passenger"/>
    <trip id="36" depart="18.00" from="269788959#2" to="157964856#0" departLane="best" type="passenger"/>
    <trip id="37" depart="18.50" from="160279691#3" to="197315982#0" departLane="best" type="passenger"/>
    <trip id="38" depart="19.00" from="51911170#5" to="49184199#1" departLane="best" type="passenger"/>
    <trip id="39" depart="19.50" from="334852287#0" to="-265002098#0" departLane="best" type="passenger"/>
    <trip id="40" depart="20.00" from="268564474#0" to="333293970" departLane="best" type="passenger"/>
    <trip id="41" depart="20.50" from="199239737#1" to="-82387304#0" departLane="best" type="passenger"/>
    <trip id="42" depart="21.00" from="-255247886#1" to="-25715400#2" departLane="best" type="passenger"/>
    <trip id="43" depart="21.50" from="49184199#0" to="229842085#3" departLane="best" type="passenger"/>
    <trip id="44" depart="22.00" from="238699263#3" to="293071598#0" departLane="best" type="passenger"/>
    <trip id="45" depart="22.50" from="51423093#3" to="260152352#1" departLane="best" type="passenger"/>
    <trip id="46" depart="23.00" from="366116366#1" to="509695170#2" departLane="best" type="passenger"/>
    <trip id="47" depart="23.50" from="289004416#2" to="29251608#0" departLane="best" type="passenger"/>
    <trip id="48" depart="24.00" from="-268564488#2" to="204211715#5" departLane="best" type="passenger"/>
    <trip id="49" depart="24.50" from="334852287#6" to="4947947#3" departLane="best" type="passenger"/>
    <trip id="50" depart="25.00" from="60787457#9" to="-198414876#0" departLane="best" type="passenger"/>
    <trip id="51" depart="25.50" from="60720745#2" to="199239731#0" departLane="best" type="passenger"/>
    <trip id="52" depart="26.00" from="160307905#1" to="51423093#7" departLane="best" type="passenger"/>
    <trip id="53" depart="26.50" from="50823701#4" to="268564472#5" departLane="best" type="passenger"/>
    <trip id="54" depart="27.00" from="244450456#6" to="51423093#3" departLane="best" type="passenger"/>
    <trip id="55" depart="27.50" from="515166734#2" to="-264995556#2" departLane="best" type="passenger"/>
    <trip id="56" depart="28.00" from="506351814" to="515166747#0" departLane="best" type="passenger"/>
    <trip id="57" depart="28.50" from="51919245#0" to="60787467#2" departLane="best" type="passenger"/>
    <trip id="58" depart="29.00" from="82994199#3" to="-241811768#2" departLane="best" type="passenger"/>
    <trip id="59" depart="29.50" from="515156306" to="-229844763#0" departLane="best" type="passenger"/>
    <trip id="60" depart="30.00" from="5117999#9" to="334852293#0" departLane="best" type="passenger"/>
    <trip id="61" depart="30.50" from="51919208#0" to="131473126#1" departLane="best" type="passenger"/>
    <trip id="62" depart="31.00" from="303413199#7" to="-29043695#0" departLane="best" type="passenger"/>
    <trip id="63" depart="31.50" from="681395579" to="264994811#1" departLane="best" type="passenger"/>
    <trip id="64" depart="32.00" from="-312725560#2" to="-515156289" departLane="best" type="passenger"/>
    <trip id="65" depart="32.50" from="197662927#0" to="335583788#1" departLane="best" type="passenger"/>
    <trip id="66" depart="33.00" from="204711202" to="267657303#4" departLane="best" type="passenger"/>
    <trip id="67" depart="33.50" from="131473112#0" to="29251608#1" departLane="best" type="passenger"/>
    <trip id="68" depart="34.00" from="82387304#4" to="270439718" departLane="best" type="passenger"/>
    <trip id="69" depart="34.50" from="310677986#0" to="60787457#4" departLane="best" type="passenger"/>
    <trip id="70" depart="35.00" from="50823694#1" to="60787469#2" departLane="best" type="passenger"/>
    <trip id="71" depart="35.50" from="-51885058#2" to="269502155#3" departLane="best" type="passenger"/>
    <trip id="72" depart="36.00" from="51911208" to="-449290531#1" departLane="best" type="passenger"/>
    <trip id="73" depart="36.50" from="157964878#10" to="-232106525#4" departLane="best" type="passenger"/>
    <trip id="74" depart="37.00" from="288878933#1" to="289246486#2" departLane="best" type="passenger"/>
    <trip id="75" depart="37.50" from="308987019#3" to="-289609877#3" departLane="best" type="passenger"/>
    <trip id="76" depart="38.00" from="506351807#0" to="-271449449#0" departLane="best" type="passenger"/>
    <trip id="77" depart="38.50" from="407513570#4" to="297339418" departLane="best" type="passenger"/>
    <trip id="78" depart="39.00" from="515156286" to="289004415#7" departLane="best" type="passenger"/>
    <trip id="79" depart="39.50" from="154829882#1" to="-131473129#1" departLane="best" type="passenger"/>
    <trip id="80" depart="40.00" from="264551743" to="-308976804#5" departLane="best" type="passenger"/>
    <trip id="81" depart="40.50" from="48776360#1" to="244450327#2" departLane="best" type="passenger"/>
    <trip id="82" depart="41.00" from="82387315#2" to="267609453#3" departLane="best" type="passenger"/>
    <trip id="83" depart="41.50" from="244618593#0" to="244450545#5" departLane="best" type="passenger"/>
    <trip id="84" depart="42.00" from="515166752#0" to="270025400#0" departLane="best" type="passenger"/>
    <trip id="85" depart="42.50" from="-82994199#1" to="-237121377#2" departLane="best" type="passenger"/>
    <trip id="86" depart="43.00" from="333293958#1" to="-197315982#0" departLane="best" type="passenger"/>
    <trip id="87" depart="43.50" from="232326530#1" to="324482434#0" departLane="best" type="passenger"/>
    <trip id="88" depart="44.00" from="157964878#19" to="244450545#1" departLane="best" type="passenger"/>
    <trip id="89" depart="44.50" from="33090413#0" to="51919186" departLane="best" type="passenger"/>
    <trip id="90" depart="45.00" from="-287735315" to="-312929522#2" departLane="best" type="passenger"/>
    <trip id="91" depart="45.50" from="509695170#5" to="29043695#3" departLane="best" type="passenger"/>
    <trip id="92" depart="46.00" from="-229844763#4" to="-268564488#0" departLane="best" type="passenger"/>
    <trip id="93" depart="46.50" from="51919208#1" to="333293958#2" departLane="best" type="passenger"/>
    <trip id="94" depart="47.00" from="-329022967#3" to="287316013#0" departLane="best" type="passenger"/>
    <trip id="95" depart="47.50" from="182973464#5" to="308976804#8" departLane="best" type="passenger"/>
    <trip id="96" depart="48.00" from="308976804#4" to="329022967#6" departLane="best" type="passenger"/>
    <trip id="97" depart="48.50" from="563927216#1" to="-51911170#7" departLane="best" type="passenger"/>
    <trip id="98" depart="49.00" from="238699273#3" to="51885134#1" departLane="best" type="passenger"/>
    <trip id="99" depart="49.50" from="506351875#8" to="288351091#4" departLane="best" type="passenger"/>
    <trip id="100" depart="50.00" from="157964878#16" to="-232106525#4" departLane="best" type="passenger"/>
    <trip id="101" depart="50.50" from="579792120#0" to="367214998#0" departLane="best" type="passenger"/>
    <trip id="102" depart="51.00" from="48776372#0" to="-267657303#5" departLane="best" type="passenger"/>
    <trip id="103" depart="51.50" from="-82994199#1" to="-269789739#0" departLane="best" type="passenger"/>
    <trip id="104" depart="52.00" from="131473113#3" to="-312929522#4" departLane="best" type="passenger"/>
    <trip id="105" depart="52.50" from="-60787464#7" to="232106525#3" departLane="best" type="passenger"/>
    <trip id="106" depart="53.00" from="-468047667" to="244456576#0" departLane="best" type="passenger"/>
    <trip id="107" depart="53.50" from="256186572#1" to="198874288#2" departLane="best" type="passenger"/>
    <trip id="108" depart="54.00" from="244450545#1" to="-289004415#6" departLane="best" type="passenger"/>
    <trip id="109" depart="54.50" from="506351826#0" to="51289046#0" departLane="best" type="passenger"/>
    <trip id="110" depart="55.00" from="197130375#4" to="-287316013#0" departLane="best" type="passenger"/>
    <trip id="111" depart="55.50" from="506322837#1" to="-329022967#13" departLane="best" type="passenger"/>
    <trip id="112" depart="56.00" from="50823694#3" to="333293958#3" departLane="best" type="passenger"/>
    <trip id="113" depart="56.50" from="303647011" to="-131473109#0" departLane="best" type="passenger"/>
    <trip id="114" depart="57.00" from="255431340#0" to="360851262#5" departLane="best" type="passenger"/>
    <trip id="115" depart="57.50" from="-241811768#0" to="131473113#3" departLane="best" type="passenger"/>
    <trip id="116" depart="58.00" from="-51423113" to="204211715#2" departLane="best" type="passenger"/>
    <trip id="117" depart="58.50" from="52513624#2" to="269789739#8" departLane="best" type="passenger"/>
    <trip id="118" depart="59.00" from="244450453#4" to="553998952" departLane="best" type="passenger"/>
    <trip id="119" depart="59.50" from="515156290#1" to="244450456#0" departLane="best" type="passenger"/>
    <trip id="120" depart="60.00" from="-329022967#6" to="326969436#3" departLane="best" type="passenger"/>
    <trip id="121" depart="60.50" from="288878933#2" to="247027458#2" departLane="best" type="passenger"/>
    <trip id="122" depart="61.00" from="244450456#0" to="82392154#10" departLane="best" type="passenger"/>
    <trip id="123" depart="61.50" from="160307902#1" to="244456574#1" departLane="best" type="passenger"/>
    <trip id="124" depart="62.00" from="51911167" to="241811768#4" departLane="best" type="passenger"/>
    <trip id="125" depart="62.50" from="-237121377#6" to="334849020#5" departLane="best" type="passenger"/>
    <trip id="126" depart="63.00" from="-267657303#2" to="238208426#0" departLane="best" type="passenger"/>
    <trip id="127" depart="63.50" from="264551742#0" to="360851263#1" departLane="best" type="passenger"/>
    <trip id="128" depart="64.00" from="262844198#0" to="-179000190#1" departLane="best" type="passenger"/>
    <trip id="129" depart="64.50" from="60787468#4" to="182973464#5" departLane="best" type="passenger"/>
    <trip id="130" depart="65.00" from="329022966#0" to="-312929522#1" departLane="best" type="passenger"/>
    <trip id="131" depart="65.50" from="33679832#3" to="-25715405#4" departLane="best" type="passenger"/>
    <trip id="132" depart="66.00" from="29043698#0" to="51885100#7" departLane="best" type="passenger"/>
    <trip id="133" depart="66.50" from="229842825#2" to="333293972#3" departLane="best" type="passenger"/>
    <trip id="134" depart="67.00" from="51423119#1" to="-229844763#7" departLane="best" type="passenger"/>
    <trip id="135" depart="67.50" from="82392154#4" to="131457247#6" departLane="best" type="passenger"/>
    <trip id="136" depart="68.00" from="-312725561#0" to="137183125#3" departLane="best" type="passenger"/>
    <trip id="137" depart="68.50" from="51885098#2" to="279397396#8" departLane="best" type="passenger"/>
    <trip id="138" depart="69.00" from="-270025399#0" to="261209292#0" departLane="best" type="passenger"/>
    <trip id="139" depart="69.50" from="506351826#1" to="-269789536#5" departLane="best" type="passenger"/>
    <trip id="140" depart="70.00" from="204211715#3" to="616091807" departLane="best" type="passenger"/>
    <trip id="141" depart="70.50" from="229844763#5" to="287316013#4" departLane="best" type="passenger"/>
    <trip id="142" depart="71.00" from="51919163" to="51423111#9" departLane="best" type="passenger"/>
    <trip id="143" depart="71.50" from="449290531#0" to="60787468#0" departLane="best" type="passenger"/>
    <trip id="144" depart="72.00" from="198874289#3" to="51919161#0" departLane="best" type="passenger"/>
    <trip id="145" depart="72.50" from="204616536#1" to="515166733#2" departLane="best" type="passenger"/>
    <trip id="146" depart="73.00" from="515156301" to="-238208422#5" departLane="best" type="passenger"/>
    <trip id="147" depart="73.50" from="-237121377#0" to="-60787600#0" departLane="best" type="passenger"/>
    <trip id="148" depart="74.00" from="-4947947#8" to="24836733#0" departLane="best" type="passenger"/>
    <trip id="149" depart="74.50" from="-255431340#0" to="-334849020#5" departLane="best" type="passenger"/>
    <trip id="150" depart="75.00" from="-198414876#5" to="51911213" departLane="best" type="passenger"/>
    <trip id="151" depart="75.50" from="262966699#1" to="287316011#1" departLane="best" type="passenger"/>
    <trip id="152" depart="76.00" from="312929522#1" to="51423093#1" departLane="best" type="passenger"/>
    <trip id="153" depart="76.50" from="267657303#0" to="330804415#2" departLane="best" type="passenger"/>
    <trip id="154" depart="77.00" from="33679832#4" to="140161685#3" departLane="best" type="passenger"/>
    <trip id="155" depart="77.50" from="-60787453#4" to="48794913#2" departLane="best" type="passenger"/>
    <trip id="156" depart="78.00" from="-23416675#0" to="241518672#0" departLane="best" type="passenger"/>
    <trip id="157" depart="78.50" from="29043700#2" to="5117999#3" departLane="best" type="passenger"/>
    <trip id="158" depart="79.00" from="131473112#7" to="289246481#0" departLane="best" type="passenger"/>
    <trip id="159" depart="79.50" from="192888508" to="334852296#1" departLane="best" type="passenger"/>
    <trip id="160" depart="80.00" from="199239738#2" to="52168898" departLane="best" type="passenger"/>
    <trip id="161" depart="80.50" from="360851263#5" to="-241811768#3" departLane="best" type="passenger"/>
    <trip id="162" depart="81.00" from="515166729#2" to="506351875#12" departLane="best" type="passenger"/>
    <trip id="163" depart="81.50" from="-265001846" to="270025378" departLane="best" type="passenger"/>
    <trip id="164" depart="82.00" from="-198874289#5" to="323090022#0" departLane="best" type="passenger"/>
    <trip id="165" depart="82.50" from="51911169" to="244450545#2" departLane="best" type="passenger"/>
    <trip id="166" depart="83.00" from="297240250#11" to="51919161#1" departLane="best" type="passenger"/>
    <trip id="167" depart="83.50" from="271449449#0" to="232326530#0" departLane="best" type="passenger"/>
    <trip id="168" depart="84.00" from="51919154" to="270025383" departLane="best" type="passenger"/>
    <trip id="169" depart="84.50" from="98562080" to="51423093#4" departLane="best" type="passenger"/>
    <trip id="170" depart="85.00" from="60730645#5" to="297240250#21" departLane="best" type="passenger"/>
    <trip id="171" depart="85.50" from="51885062#3" to="29251608#1" departLane="best" type="passenger"/>
    <trip id="172" depart="86.00" from="310620429#2" to="33679741#14" departLane="best" type="passenger"/>
    <trip id="173" depart="86.50" from="329022966#1" to="268564474#4" departLane="best" type="passenger"/>
    <trip id="174" depart="87.00" from="325213932#0" to="407513570#0" departLane="best" type="passenger"/>
    <trip id="175" depart="87.50" from="392259104" to="308987019#0" departLane="best" type="passenger"/>
    <trip id="176" depart="88.00" from="-308976804#3" to="51289048" departLane="best" type="passenger"/>
    <trip id="177" depart="88.50" from="238526526#2" to="244450423" departLane="best" type="passenger"/>
    <trip id="178" depart="89.00" from="360851263#0" to="506351786#2" departLane="best" type="passenger"/>
    <trip id="179" depart="89.50" from="229885663#1" to="506351852#4" departLane="best" type="passenger"/>
    <trip id="180" depart="90.00" from="388166933#0" to="563927216#1" departLane="best" type="passenger"/>
    <trip id="181" depart="90.50" from="60730604#0" to="131473112#2" departLane="best" type="passenger"/>
    <trip id="182" depart="91.00" from="308987019#2" to="515166729#1" departLane="best" type="passenger"/>
    <trip id="183" depart="91.50" from="-330804416#0" to="25715399#3" departLane="best" type="passenger"/>
    <trip id="184" depart="92.00" from="-60787464#0" to="515156307" departLane="best" type="passenger"/>
    <trip id="185" depart="92.50" from="51885068#1" to="-308976804#9" departLane="best" type="passenger"/>
    <trip id="186" depart="93.00" from="264399458#0" to="-60787453#3" departLane="best" type="passenger"/>
    <trip id="187" depart="93.50" from="4947947#1" to="51423111#8" departLane="best" type="passenger"/>
    <trip id="188" depart="94.00" from="82994199#0" to="515156313#3" departLane="best" type="passenger"/>
    <trip id="189" depart="94.50" from="425376583#2" to="360851262#3" departLane="best" type="passenger"/>
    <trip id="190" depart="95.00" from="-274809899#2" to="-468047663" departLane="best" type="passenger"/>
    <trip id="191" depart="95.50" from="262211597#0" to="182336887#4" departLane="best" type="passenger"/>
    <trip id="192" depart="96.00" from="515166747#1" to="312603791#4" departLane="best" type="passenger"/>
    <trip id="193" depart="96.50" from="157964878#8" to="-269789739#9" departLane="best" type="passenger"/>
    <trip id="194" depart="97.00" from="-407202553#1" to="506322836#4" departLane="best" type="passenger"/>
    <trip id="195" depart="97.50" from="60730601#2" to="-274809899#2" departLane="best" type="passenger"/>
    <trip id="196" depart="98.00" from="407513573#0" to="-247027459#3" departLane="best" type="passenger"/>
    <trip id="197" depart="98.50" from="-51911170#2" to="268564472#3" departLane="best" type="passenger"/>
    <trip id="198" depart="99.00" from="334849018" to="51423111#9" departLane="best" type="passenger"/>
    <trip id="199" depart="99.50" from="-407513573#0" to="264550938#1" departLane="best" type="passenger"/>
    <trip id="200" depart="100.00" from="33679741#14" to="4947947#9" departLane="best" type="passenger"/>
    <trip id="201" depart="100.50" from="333263680#0" to="251277094#0" departLane="best" type="passenger"/>
    <trip id="202" depart="101.00" from="506351842" to="238699263#2" departLane="best" type="passenger"/>
    <trip id="203" depart="101.50" from="-60787464#8" to="303413199#1" departLane="best" type="passenger"/>
    <trip id="204" depart="102.00" from="242632926#2" to="-182335534#3" departLane="best" type="passenger"/>
    <trip id="205" depart="102.50" from="269789739#11" to="287316011#2" departLane="best" type="passenger"/>
    <trip id="206" depart="103.00" from="238699273#0" to="289004429#3" departLane="best" type="passenger"/>
    <trip id="207" depart="103.50" from="269789001#0" to="244450535#1" departLane="best" type="passenger"/>
    <trip id="208" depart="104.00" from="-247027458#1" to="241811768#3" departLane="best" type="passenger"/>
    <trip id="209" depart="104.50" from="-51423093#4" to="-82387304#2" departLane="best" type="passenger"/>
    <trip id="210" depart="105.00" from="407513570#5" to="279397396#1" departLane="best" type="passenger"/>
    <trip id="211" depart="105.50" from="324482434#0" to="51423111#1" departLane="best" type="passenger"/>
    <trip id="212" depart="106.00" from="51885181#0" to="413949761#3" departLane="best" type="passenger"/>
    <trip id="213" depart="106.50" from="310620429#2" to="286098898#4" departLane="best" type="passenger"/>
    <trip id="214" depart="107.00" from="31051190#2" to="182336890#0" departLane="best" type="passenger"/>
    <trip id="215" depart="107.50" from="-268564487#1" to="-264995556#2" departLane="best" type="passenger"/>
    <trip id="216" depart="108.00" from="4860359#1" to="264550938#0" departLane="best" type="passenger"/>
    <trip id="217" depart="108.50" from="51911170#7" to="-229844763#6" departLane="best" type="passenger"/>
    <trip id="218" depart="109.00" from="50823698#0" to="201280842#3" departLane="best" type="passenger"/>
    <trip id="219" depart="109.50" from="131457247#9" to="333293972#2" departLane="best" type="passenger"/>
    <trip id="220" depart="110.00" from="31051190#5" to="269788952#3" departLane="best" type="passenger"/>
    <trip id="221" depart="110.50" from="-237121377#3" to="468047666#1" departLane="best" type="passenger"/>
    <trip id="222" depart="111.00" from="262211597#1" to="204211736#3" departLane="best" type="passenger"/>
    <trip id="223" depart="111.50" from="48794905#4" to="137183125#1" departLane="best" type="passenger"/>
    <trip id="224" depart="112.00" from="289609877#0" to="238208425#2" departLane="best" type="passenger"/>
    <trip id="225" depart="112.50" from="199239738#2" to="243317509#0" departLane="best" type="passenger"/>
    <trip id="226" depart="113.00" from="60787457#3" to="198874289#5" departLane="best" type="passenger"/>
    <trip id="227" depart="113.50" from="333293968#1" to="287316010#2" departLane="best" type="passenger"/>
    <trip id="228" depart="114.00" from="-24000959#8" to="506351870" departLane="best" type="passenger"/>
    <trip id="229" depart="114.50" from="-289004415#0" to="264994811#1" departLane="best" type="passenger"/>
    <trip id="230" depart="115.00" from="-375486274#1" to="131457246#7" departLane="best" type="passenger"/>
    <trip id="231" depart="115.50" from="-31051190#3" to="-330745422" departLane="best" type="passenger"/>
    <trip id="232" depart="116.00" from="270439718" to="-82387304#0" departLane="best" type="passenger"/>
    <trip id="233" depart="116.50" from="229842085#5" to="268564472#5" departLane="best" type="passenger"/>
    <trip id="234" depart="117.00" from="48794905#0" to="182336887#3" departLane="best" type="passenger"/>
    <trip id="235" depart="117.50" from="-159980284#1" to="288878925#0" departLane="best" type="passenger"/>
    <trip id="236" depart="118.00" from="-229844763#2" to="-308987019#3" departLane="best" type="passenger"/>
    <trip id="237" depart="118.50" from="-381733807#1" to="182336890#2" departLane="best" type="passenger"/>
    <trip id="238" depart="119.00" from="198874292#0" to="198874292#1" departLane="best" type="passenger"/>
    <trip id="239" depart="119.50" from="197130375#1" to="-269789739#4" departLane="best" type="passenger"/>
    <trip id="240" depart="120.00" from="-244456576#0" to="413949757#1" departLane="best" type="passenger"/>
    <trip id="241" depart="120.50" from="243906114#1" to="274809899#0" departLane="best" type="passenger"/>
    <trip id="242" depart="121.00" from="-241811768#9" to="-329022967#5" departLane="best" type="passenger"/>
    <trip id="243" depart="121.50" from="31051190#5" to="-270025399#0" departLane="best" type="passenger"/>
    <trip id="244" depart="122.00" from="455330016#0" to="-289004415#4" departLane="best" type="passenger"/>
    <trip id="245" depart="122.50" from="51289046#2" to="51423111#10" departLane="best" type="passenger"/>
    <trip id="246" depart="123.00" from="33679741#18" to="-265001846" departLane="best" type="passenger"/>
    <trip id="247" depart="123.50" from="336182122#1" to="287327326#1" departLane="best" type="passenger"/>
    <trip id="248" depart="124.00" from="-29043695#3" to="-199980015#0" departLane="best" type="passenger"/>
    <trip id="249" depart="124.50" from="131457243#7" to="236724528#0" departLane="best" type="passenger"/>
    <trip id="250" depart="125.00" from="-325213929#2" to="-137195739" departLane="best" type="passenger"/>
    <trip id="251" depart="125.50" from="-25715402#4" to="137195740#0" departLane="best" type="passenger"/>
    <trip id="252" depart="126.00" from="-334849020#0" to="60730602#1" departLane="best" type="passenger"/>
    <trip id="253" depart="126.50" from="82392154#9" to="198725737#7" departLane="best" type="passenger"/>
    <trip id="254" depart="127.00" from="51911176" to="159980284#4" departLane="best" type="passenger"/>
    <trip id="255" depart="127.50" from="48776360#1" to="51911170#7" departLane="best" type="passenger"/>
    <trip id="256" depart="128.00" from="308987019#8" to="270025394#2" departLane="best" type="passenger"/>
    <trip id="257" depart="128.50" from="51919251" to="287327326#1" departLane="best" type="passenger"/>
    <trip id="258" depart="129.00" from="182973464#7" to="462935591" departLane="best" type="passenger"/>
    <trip id="259" depart="129.50" from="244456581#1" to="-270025394#4" departLane="best" type="passenger"/>
    <trip id="260" depart="130.00" from="-244509935#0" to="-269788952#4" departLane="best" type="passenger"/>
    <trip id="261" depart="130.50" from="-491638036#0" to="4947947#3" departLane="best" type="passenger"/>
    <trip id="262" depart="131.00" from="-269789739#15" to="60730601#2" departLane="best" type="passenger"/>
    <trip id="263" depart="131.50" from="60720749#0" to="154829894#1" departLane="best" type="passenger"/>
    <trip id="264" depart="132.00" from="244450453#2" to="-329022967#6" departLane="best" type="passenger"/>
    <trip id="265" depart="132.50" from="-334849020#5" to="26697213#5" departLane="best" type="passenger"/>
    <trip id="266" depart="133.00" from="51919245#0" to="244450453#3" departLane="best" type="passenger"/>
    <trip id="267" depart="133.50" from="23416666#5" to="244450545#3" departLane="best" type="passenger"/>
    <trip id="268" depart="134.00" from="407513569#1" to="49795875#5" departLane="best" type="passenger"/>
    <trip id="269" depart="134.50" from="232326522#1" to="201280841" departLane="best" type="passenger"/>
    <trip id="270" depart="135.00" from="131473142#1" to="297240250#10" departLane="best" type="passenger"/>
    <trip id="271" depart="135.50" from="24006860#10" to="229885663#1" departLane="best" type="passenger"/>
    <trip id="272" depart="136.00" from="333293968#3" to="52168895" departLane="best" type="passenger"/>
    <trip id="273" depart="136.50" from="271449449#0" to="270025385#0" departLane="best" type="passenger"/>
    <trip id="274" depart="137.00" from="-246651378#0" to="-217690233" departLane="best" type="passenger"/>
    <trip id="275" depart="137.50" from="131473113#1" to="268564471#1" departLane="best" type="passenger"/>
    <trip id="276" depart="138.00" from="334852293#5" to="269788952#2" departLane="best" type="passenger"/>