<additional>
    <tlLogic id="1559451853" offset="0" programID="1" type="static">
        <phase duration="11" state="rrGGGG" />
        <phase duration="5" state="rryyyy" />
        <phase duration="14" state="GGrrrr" />
        <phase duration="5" state="yyrrrr" />
    </tlLogic>
    <tlLogic id="1559476781" offset="0" programID="1" type="static">
        <phase duration="12" state="GGrrr" />
        <phase duration="5" state="yyrrr" />
        <phase duration="14" state="rrGGG" />
        <phase duration="5" state="rryyy" />
    </tlLogic>
    <tlLogic id="1559476783" offset="0" programID="1" type="static">
        <phase duration="37" state="GGGGrrrrGG" />
        <phase duration="5" state="yyyyrrrryy" />
        <phase duration="12" state="rrrrGGGGrr" />
        <phase duration="5" state="rrrryyyyrr" />
    </tlLogic>
    <tlLogic id="2721256048" offset="0" programID="1" type="static">
        <phase duration="22" state="GGrr" />
        <phase duration="5" state="yyrr" />
        <phase duration="9" state="rrGG" />
        <phase duration="5" state="rryy" />
    </tlLogic>
    <tlLogic id="296637207" offset="0" programID="1" type="static">
        <phase duration="18" state="GGGrr" />
        <phase duration="5" state="yyyrr" />
        <phase duration="18" state="rrrGG" />
        <phase duration="5" state="rrryy" />
    </tlLogic>
    <tlLogic id="296637218" offset="0" programID="1" type="static">
        <phase duration="10" state="GGrr" />
        <phase duration="5" state="yyrr" />
        <phase duration="18" state="rrGG" />
        <phase duration="5" state="rryy" />
    </tlLogic>
    <tlLogic id="296637225" offset="0" programID="1" type="static">
        <phase duration="17" state="GGrr" />
        <phase duration="5" state="yyrr" />
        <phase duration="17" state="rrGG" />
        <phase duration="5" state="rryy" />
    </tlLogic>
    <tlLogic id="296637233" offset="0" programID="1" type="static">
        <phase duration="18" state="GGrr" />
        <phase duration="5" state="yyrr" />
        <phase duration="12" state="rrGG" />
        <phase duration="5" state="rryy" />
    </tlLogic>
    <tlLogic id="296637256" offset="0" programID="1" type="static">
        <phase duration="22" state="GGGGGGrrrr" />
        <phase duration="5" state="yyyyyyrrrr" />
        <phase duration="8" state="rrrrrrGGGG" />
        <phase duration="5" state="rrrrrryyyy" />
    </tlLogic>
    <tlLogic id="296637281" offset="0" programID="1" type="static">
        <phase duration="16" state="GGrrr" />
        <phase duration="5" state="yyrrr" />
        <phase duration="12" state="rrGGG" />
        <phase duration="5" state="rryyy" />
    </tlLogic>
    <tlLogic id="296637288" offset="0" programID="1" type="static">
        <phase duration="33" state="GGrrr" />
        <phase duration="5" state="yyrrr" />
        <phase duration="12" state="rrGGG" />
        <phase duration="5" state="rryyy" />
    </tlLogic>
    <tlLogic id="296637299" offset="0" programID="1" type="static">
        <phase duration="13" state="rrrGGGG" />
        <phase duration="5" state="rrryyyy" />
        <phase duration="12" state="GGGrrrr" />
        <phase duration="5" state="yyyrrrr" />
    </tlLogic>
    <tlLogic id="296637337" offset="0" programID="1" type="static">
        <phase duration="12" state="GGGrGGrr" />
        <phase duration="5" state="yyyryyrr" />
        <phase duration="17" state="rrrGrrGG" />
        <phase duration="5" state="rrryrryy" />
    </tlLogic>
    <tlLogic id="296637359" offset="0" programID="1" type="static">
        <phase duration="13" state="GGGGGGrrr" />
        <phase duration="5" state="yyyyyyrrr" />
        <phase duration="15" state="rrrrrrGGG" />
        <phase duration="5" state="rrrrrryyy" />
    </tlLogic>
    <tlLogic id="296637430" offset="0" programID="1" type="static">
        <phase duration="15" state="GGGrrrr" />
        <phase duration="5" state="yyyrrrr" />
        <phase duration="15" state="rrrGGGG" />
        <phase duration="5" state="rrryyyy" />
    </tlLogic>
    <tlLogic id="296637438" offset="0" programID="1" type="static">
        <phase duration="37" state="GGrrrr" />
        <phase duration="5" state="yyrrrr" />
        <phase duration="20" state="rrGGGG" />
        <phase duration="5" state="rryyyy" />
    </tlLogic>
    <tlLogic id="296637447" offset="0" programID="1" type="static">
        <phase duration="14" state="GGrrr" />
        <phase duration="5" state="yyrrr" />
        <phase duration="9" state="rrGGG" />
        <phase duration="5" state="rryyy" />
    </tlLogic>
    <tlLogic id="296637510" offset="0" programID="1" type="static">
        <phase duration="15" state="GGrr" />
        <phase duration="5" state="yyrr" />
        <phase duration="14" state="rrGG" />
        <phase duration="5" state="rryy" />
    </tlLogic>
    <tlLogic id="296637521" offset="0" programID="1" type="static">
        <phase duration="10" state="GGrr" />
        <phase duration="5" state="yyrr" />
        <phase duration="13" state="rrGG" />
        <phase duration="5" state="rryy" />
    </tlLogic>
    <tlLogic id="296637528" offset="0" programID="1" type="static">
        <phase duration="15" state="GGrr" />
        <phase duration="5" state="yyrr" />
        <phase duration="8" state="rrGG" />
        <phase duration="5" state="rryy" />
    </tlLogic>
    <tlLogic id="296637539" offset="0" programID="1" type="static">
        <phase duration="13" state="GGrr" />
        <phase duration="5" state="yyrr" />
        <phase duration="11" state="rrGG" />
        <phase duration="5" state="rryy" />
    </tlLogic>
    <tlLogic id="296637549" offset="0" programID="1" type="static">
        <phase duration="21" state="rrGGG" />
        <phase duration="5" state="rryyy" />
        <phase duration="20" state="GGrrr" />
        <phase duration="5" state="yyrrr" />
    </tlLogic>
    <tlLogic id="296637610" offset="0" programID="1" type="static">
        <phase duration="20" state="GGrr" />
        <phase duration="5" state="yyrr" />
        <phase duration="13" state="rrGG" />
        <phase duration="5" state="rryy" />
    </tlLogic>
    <tlLogic id="296637617" offset="0" programID="1" type="static">
        <phase duration="35" state="GGGrr" />
        <phase duration="5" state="yyyrr" />
        <phase duration="21" state="rrrGG" />
        <phase duration="5" state="rrryy" />
    </tlLogic>
    <tlLogic id="296637664" offset="0" programID="1" type="static">
        <phase duration="16" state="Gr" />
        <phase duration="5" state="yr" />
        <phase duration="41" state="rG" />
        <phase duration="5" state="ry" />
    </tlLogic>
    <tlLogic id="296637748" offset="0" programID="1" type="static">
        <phase duration="19" state="GGrr" />
        <phase duration="5" state="yyrr" />
        <phase duration="19" state="rrGG" />
        <phase duration="5" state="rryy" />
    </tlLogic>
    <tlLogic id="296666546" offset="0" programID="1" type="static">
        <phase duration="20" state="GGGrr" />
        <phase duration="5" state="yyyrr" />
        <phase duration="10" state="rrrGG" />
        <phase duration="5" state="rrryy" />
    </tlLogic>
    <tlLogic id="296666558" offset="0" programID="1" type="static">
        <phase duration="19" state="GGrrr" />
        <phase duration="5" state="yyrrr" />
        <phase duration="9" state="rrGGG" />
        <phase duration="5" state="rryyy" />
    </tlLogic>
    <tlLogic id="296666580" offset="0" programID="1" type="static">
        <phase duration="43" state="GGGrr" />
        <phase duration="5" state="yyyrr" />
        <phase duration="13" state="rrrGG" />
        <phase duration="5" state="rrryy" />
    </tlLogic>
    <tlLogic id="296666597" offset="0" programID="1" type="static">
        <phase duration="10" state="GGGrr" />
        <phase duration="5" state="yyyrr" />
        <phase duration="14" state="rrrGG" />
        <phase duration="5" state="rrryy" />
    </tlLogic>
    <tlLogic id="296666602" offset="0" programID="1" type="static">
        <phase duration="21" state="GGGrr" />
        <phase duration="5" state="yyyrr" />
        <phase duration="10" state="rrrGG" />
        <phase duration="5" state="rrryy" />
    </tlLogic>
    <tlLogic id="296666606" offset="0" programID="1" type="static">	
        <phase duration="13" state="GGGrr" />
        <phase duration="5" state="yyyrr" />
        <phase duration="25" state="rrrGG" />
        <phase duration="5" state="rrryy" />
    </tlLogic>
    <tlLogic id="296666611" offset="0" programID="1" type="static">
        <phase duration="8" state="rrrrGGrrGGGr" />
        <phase duration="5" state="rrrryyrryyyr" />
        <phase duration="12" state="rrrrrrGGrrrG" />
        <phase duration="5" state="rrrrrryyrrry" />
        <phase duration="42" state="GGGGrrrrrrrr" />
        <phase duration="5" state="yyyyrrrrrrrr" />
    </tlLogic>
    <tlLogic id="296666683" offset="0" programID="1" type="static">
        <phase duration="12" state="GGrr" />
        <phase duration="5" state="yyrr" />
        <phase duration="21" state="rrGG" />
        <phase duration="5" state="rryy" />
    </tlLogic>
    <tlLogic id="296666688" offset="0" programID="1" type="static">
        <phase duration="18" state="GGrr" />
        <phase duration="5" state="yyrr" />
        <phase duration="35" state="rrGG" />
        <phase duration="5" state="rryy" />
    </tlLogic>
    <tlLogic id="296666691" offset="0" programID="1" type="static">
        <phase duration="13" state="GGrr" />
        <phase duration="5" state="yyrr" />
        <phase duration="18" state="rrGG" />
        <phase duration="5" state="rryy" />
    </tlLogic>
    <tlLogic id="296666695" offset="0" programID="1" type="static">
        <phase duration="19" state="GGGrrrrGGrr" />
        <phase duration="5" state="yyyrrrryyrr" />
        <phase duration="11" state="rrrGrrrrrGG" />
        <phase duration="5" state="rrryrrrrryy" />
        <phase duration="15" state="rrrrGGGrrrr" />
        <phase duration="5" state="rrrryyyrrrr" />
    </tlLogic>
    <tlLogic id="296666708" offset="0" programID="1" type="static">
        <phase duration="13" state="GGGrrrrGGrr" />
        <phase duration="5" state="yyyrrrryyrr" />
        <phase duration="15" state="rrrGrrrrrGG" />
        <phase duration="5" state="rrryrrrrryy" />
        <phase duration="14" state="rrrrGGGrrrr" />
        <phase duration="5" state="rrrryyyrrrr" />
    </tlLogic>
    <tlLogic id="296666714" offset="0" programID="1" type="static">
        <phase duration="12" state="rrrGGrrGGGr" />
        <phase duration="5" state="rrryyrryyyr" />
        <phase duration="20" state="rrrrrGGrrrG" />
        <phase duration="5" state="rrrrryyrrry" />
        <phase duration="14" state="GGGrrrrrrrr" />
        <phase duration="5" state="yyyrrrrrrrr" />
    </tlLogic>
    <tlLogic id="296666718" offset="0" programID="1" type="static">
        <phase duration="9" state="GGGrrrrGGrr" />
        <phase duration="5" state="yyyrrrryyrr" />
        <phase duration="12" state="rrrGrrrrrGG" />
        <phase duration="5" state="rrryrrrrryy" />
        <phase duration="13" state="rrrrGGGrrrr" />
        <phase duration="5" state="rrrryyyrrrr" />
    </tlLogic>
    <tlLogic id="296734855" offset="0" programID="1" type="static">
        <phase duration="13" state="GGrr" />
        <phase duration="5" state="yyrr" />
        <phase duration="10" state="rrGG" />
        <phase duration="5" state="rryy" />
    </tlLogic>
    <tlLogic id="296734861" offset="0" programID="1" type="static">
        <phase duration="11" state="GGrr" />
        <phase duration="5" state="yyrr" />
        <phase duration="14" state="rrGG" />
        <phase duration="5" state="rryy" />
    </tlLogic>
    <tlLogic id="296734867" offset="0" programID="1" type="static">
        <phase duration="15" state="GGrr" />
        <phase duration="5" state="yyrr" />
        <phase duration="12" state="rrGG" />
        <phase duration="5" state="rryy" />
    </tlLogic>
    <tlLogic id="296734871" offset="0" programID="1" type="static">
        <phase duration="31" state="GGrr" />
        <phase duration="5" state="yyrr" />
        <phase duration="10" state="rrGG" />
        <phase duration="5" state="rryy" />
    </tlLogic>
    <tlLogic id="296734874" offset="0" programID="1" type="static">
        <phase duration="11" state="GGrr" />
        <phase duration="5" state="yyrr" />
        <phase duration="18" state="rrGG" />
        <phase duration="5" state="rryy" />
    </tlLogic>
    <tlLogic id="296734897" offset="0" programID="1" type="static">
        <phase duration="12" state="GGrr" />
        <phase duration="5" state="yyrr" />
        <phase duration="10" state="rrGG" />
        <phase duration="5" state="rryy" />
    </tlLogic>
    <tlLogic id="296734906" offset="0" programID="1" type="static">
        <phase duration="11" state="GGrr" />
        <phase duration="5" state="yyrr" />
        <phase duration="12" state="rrGG" />
        <phase duration="5" state="rryy" />
    </tlLogic>
    <tlLogic id="296734909" offset="0" programID="1" type="static">	
        <phase duration="14" state="GGrr" />
        <phase duration="5" state="yyrr" />
        <phase duration="17" state="rrGG" />
        <phase duration="5" state="rryy" />
    </tlLogic>
    <tlLogic id="296734962" offset="0" programID="1" type="static">
        <phase duration="12" state="GGrr" />
        <phase duration="5" state="yyrr" />
        <phase duration="8" state="rrGG" />
        <phase duration="5" state="rryy" />
    </tlLogic>
    <tlLogic id="296734964" offset="0" programID="1" type="static">
        <phase duration="13" state="GGrr" />
        <phase duration="5" state="yyrr" />
        <phase duration="17" state="rrGG" />
        <phase duration="5" state="rryy" />
    </tlLogic>
    <tlLogic id="296734968" offset="0" programID="1" type="static">
        <phase duration="13" state="GGrr" />
        <phase duration="5" state="yyrr" />
        <phase duration="37" state="rrGG" />
        <phase duration="5" state="rryy" />
    </tlLogic>
    <tlLogic id="296734976" offset="0" programID="1" type="static">
        <phase duration="29" state="GGrr" />
        <phase duration="5" state="yyrr" />
        <phase duration="42" state="rrGG" />
        <phase duration="5" state="rryy" />
    </tlLogic>
    <tlLogic id="296734980" offset="0" programID="1" type="static">
        <phase duration="45" state="GGrr" />
        <phase duration="5" state="yyrr" />
        <phase duration="38" state="rrGG" />
        <phase duration="5" state="rryy" />
    </tlLogic>
    <tlLogic id="296734996" offset="0" programID="1" type="static">
        <phase duration="10" state="GGrr" />
        <phase duration="5" state="yyrr" />
        <phase duration="11" state="rrGG" />
        <phase duration="5" state="rryy" />
    </tlLogic>
    <tlLogic id="296735001" offset="0" programID="1" type="static">
        <phase duration="8" state="GGrr" />
        <phase duration="5" state="yyrr" />
        <phase duration="13" state="rrGG" />
        <phase duration="5" state="rryy" />
    </tlLogic>
    <tlLogic id="296735036" offset="0" programID="1" type="static">
        <phase duration="12" state="GGrr" />
        <phase duration="5" state="yyrr" />
        <phase duration="15" state="rrGG" />
        <phase duration="5" state="rryy" />
    </tlLogic>
    <tlLogic id="297133314" offset="0" programID="1" type="static">
        <phase duration="17" state="GGrr" />
        <phase duration="5" state="yyrr" />
        <phase duration="8" state="rrGG" />
        <phase duration="5" state="rryy" />
    </tlLogic>
    <tlLogic id="297139323" offset="0" programID="1" type="static">	
        <phase duration="9" state="GGrr" />
        <phase duration="5" state="yyrr" />
        <phase duration="9" state="rrGG" />
        <phase duration="5" state="rryy" />
    </tlLogic>
</additional>