<additional>
    <tlLogic id="1628378034" offset="0" programID="1" type="static">	
        <phase duration="57" state="Grrrr" />
        <phase duration="5" state="yrrrr" />
        <phase duration="58" state="rrrrG" />
        <phase duration="5" state="rrrry" />
        <phase duration="16" state="rGGGr" />
        <phase duration="5" state="ryyyr" />
    </tlLogic>
    <tlLogic id="2023888620" offset="0" programID="1" type="static">	
        <phase duration="16" state="GGrrrrrGrr" />
        <phase duration="5" state="yyrrrrryrr" />
        <phase duration="40" state="rrGrrrrrGG" />
        <phase duration="5" state="rryrrrrryy" />
        <phase duration="24" state="rrrGGGGrrr" />
        <phase duration="5" state="rrryyyyrrr" />
    </tlLogic>
    <tlLogic id="2070949328" offset="0" programID="1" type="static">	
        <phase duration="19" state="GGGrr" />
        <phase duration="5" state="yyyrr" />
        <phase duration="41" state="rrrGG" />
        <phase duration="5" state="rrryy" />
    </tlLogic>
    <tlLogic id="248606020" offset="0" programID="1" type="static">	
        <phase duration="16" state="GGGrrrrrrGGrr" />
        <phase duration="5" state="yyyrrrrrryyrr" />
        <phase duration="47" state="rrrGrrrrrrrGG" />
        <phase duration="5" state="rrryrrrrrrryy" />
        <phase duration="16" state="rrrrGGGGGrrrr" />
        <phase duration="5" state="rrrryyyyyrrrr" />
    </tlLogic>
    <tlLogic id="248742493" offset="0" programID="1" type="static">	
        <phase duration="16" state="GGGGrrrrGr" />
        <phase duration="5" state="yyyyrrrryr" />
        <phase duration="50" state="rrrrGGGGrG" />
        <phase duration="5" state="rrrryyyyry" />
    </tlLogic>
    <tlLogic id="303275667" offset="0" programID="1" type="static">	
        <phase duration="16" state="GGr" />
        <phase duration="5" state="yyr" />
        <phase duration="16" state="rrG" />
        <phase duration="5" state="rry" />
    </tlLogic>
    <tlLogic id="303275904" offset="0" programID="1" type="static">	
        <phase duration="16" state="GGGrrrrr" />
        <phase duration="5" state="yyyrrrrr" />
        <phase duration="49" state="rrrGGGGG" />
        <phase duration="5" state="rrryyyyy" />
    </tlLogic>
    <tlLogic id="303278079" offset="0" programID="1" type="static">	
        <phase duration="16" state="Grrr" />
        <phase duration="5" state="yrrr" />
        <phase duration="29" state="rGGG" />
        <phase duration="5" state="ryyy" />
    </tlLogic>
    <tlLogic id="303278277" offset="0" programID="1" type="static">	
        <phase duration="19" state="Grrr" />
        <phase duration="5" state="yrrr" />
        <phase duration="26" state="rGGG" />
        <phase duration="5" state="ryyy" />
    </tlLogic>
    <tlLogic id="303278502" offset="0" programID="1" type="static">	
        <phase duration="16" state="GGGGGrrrrr" />
        <phase duration="5" state="yyyyyrrrrr" />
        <phase duration="45" state="rrrrrGGGGG" />
        <phase duration="5" state="rrrrryyyyy" />
    </tlLogic>
    <tlLogic id="331525911" offset="0" programID="1" type="static">	
        <phase duration="15" state="GGGrr" />
        <phase duration="5" state="yyyrr" />
        <phase duration="17" state="rrrGG" />
        <phase duration="5" state="rrryy" />
    </tlLogic>
    <tlLogic id="331526235" offset="0" programID="1" type="static">	
        <phase duration="37" state="GGrr" />
        <phase duration="5" state="yyrr" />
        <phase duration="43" state="rrGG" />
        <phase duration="5" state="rryy" />
    </tlLogic>
    <tlLogic id="3556358828" offset="0" programID="1" type="static">	
        <phase duration="9" state="GGrrrr" />
        <phase duration="5" state="yyrrrr" />
        <phase duration="16" state="rrGGrr" />
        <phase duration="5" state="rryyrr" />
        <phase duration="16" state="rrrrGG" />
        <phase duration="5" state="rrrryy" />
    </tlLogic>	
    <tlLogic id="3639828841" offset="0" programID="1" type="static">	
        <phase duration="54" state="GGGGrrr" />
        <phase duration="5" state="yyyyrrr" />
        <phase duration="16" state="rrrrGGG" />
        <phase duration="5" state="rrrryyy" />
    </tlLogic>
    <tlLogic id="3691964514" offset="0" programID="1" type="static">	
        <phase duration="32" state="rrrGGGrrr" />
        <phase duration="5" state="rrryyyrrr" />
        <phase duration="16" state="rrrrrrGGG" />
        <phase duration="5" state="rrrrrryyy" />
        <phase duration="43" state="GGGGrrrrr" />
        <phase duration="5" state="yyyyrrrrr" />
    </tlLogic>
    <tlLogic id="418234837" offset="0" programID="1" type="static">	
        <phase duration="16" state="GGrr" />
        <phase duration="5" state="yyrr" />
        <phase duration="20" state="rrGG" />
        <phase duration="5" state="rryy" />
    </tlLogic>
    <tlLogic id="418234847" offset="0" programID="1" type="static">	
        <phase duration="29" state="GGrr" />
        <phase duration="5" state="yyrr" />
        <phase duration="5" state="rrGG" />
        <phase duration="5" state="rryy" />
    </tlLogic>
    <tlLogic id="418234851" offset="0" programID="1" type="static">	
        <phase duration="32" state="GGrr" />
        <phase duration="5" state="yyrr" />
        <phase duration="8" state="rrGG" />
        <phase duration="5" state="rryy" />
    </tlLogic>
    <tlLogic id="418376981" offset="0" programID="1" type="static">	
        <phase duration="16" state="GGGGrrr" />
        <phase duration="5" state="yyyyrrr" />
        <phase duration="16" state="rrrrGGG" />
        <phase duration="5" state="rrrryyy" />
    </tlLogic>
    <tlLogic id="418376983" offset="0" programID="1" type="static">	
        <phase duration="58" state="GGrr" />
        <phase duration="5" state="yyrr" />
        <phase duration="18" state="rrGG" />
        <phase duration="5" state="rryy" />
    </tlLogic>
    <tlLogic id="418376984" offset="0" programID="1" type="static">	
        <phase duration="41" state="GGGGrrr" />
        <phase duration="5" state="yyyyrrr" />
        <phase duration="16" state="rrrrGGG" />
        <phase duration="5" state="rrrryyy" />
    </tlLogic>
    <tlLogic id="419625734" offset="0" programID="1" type="static">	
        <phase duration="33" state="Grrr" />
        <phase duration="5" state="yrrr" />
        <phase duration="58" state="rGGG" />
        <phase duration="5" state="ryyy" />
    </tlLogic>
    <tlLogic id="419625735" offset="0" programID="1" type="static">	
        <phase duration="12" state="GGrr" />
        <phase duration="5" state="yyrr" />
        <phase duration="42" state="rrGG" />
        <phase duration="5" state="rryy" />
    </tlLogic>
    <tlLogic id="419641199" offset="0" programID="1" type="static">	
        <phase duration="16" state="GGGrr" />
        <phase duration="5" state="yyyrr" />
        <phase duration="54" state="rrrGG" />
        <phase duration="5" state="rrryy" />
    </tlLogic>
    <tlLogic id="419641406" offset="0" programID="1" type="static">	
        <phase duration="16" state="GGGrrGG" />
        <phase duration="5" state="yyyrryy" />
        <phase duration="31" state="rrrGGrr" />
        <phase duration="5" state="rrryyrr" />
    </tlLogic>
    <tlLogic id="419646227" offset="0" programID="1" type="static">	
        <phase duration="22" state="GGrr" />
        <phase duration="5" state="yyrr" />
        <phase duration="13" state="rrGG" />
        <phase duration="5" state="rryy" />
    </tlLogic>
    <tlLogic id="419652679" offset="0" programID="1" type="static">	
        <phase duration="16" state="GGr" />
        <phase duration="5" state="yyr" />
        <phase duration="58" state="rrG" />
        <phase duration="5" state="rry" />
    </tlLogic>
    <tlLogic id="419652681" offset="0" programID="1" type="static">	
        <phase duration="16" state="GGrr" />
        <phase duration="5" state="yyrr" />
        <phase duration="58" state="rrGG" />
        <phase duration="5" state="rryy" />
    </tlLogic>
    <tlLogic id="419652686" offset="0" programID="1" type="static">	
        <phase duration="45" state="GGrr" />
        <phase duration="5" state="yyrr" />
        <phase duration="22" state="rrGG" />
        <phase duration="5" state="rryy" />
    </tlLogic>
    <tlLogic id="419652689" offset="0" programID="1" type="static">	
        <phase duration="9" state="GGrr" />
        <phase duration="5" state="yyrr" />
        <phase duration="16" state="rrGG" />
        <phase duration="5" state="rryy" />
    </tlLogic>
    <tlLogic id="419669836" offset="0" programID="1" type="static">	
        <phase duration="27" state="GGr" />
        <phase duration="5" state="yyr" />
        <phase duration="54" state="rrG" />
        <phase duration="5" state="rry" />
    </tlLogic>
    <tlLogic id="419677118" offset="0" programID="1" type="static">	
        <phase duration="51" state="Gr" />
        <phase duration="5" state="yr" />
        <phase duration="26" state="rG" />
        <phase duration="5" state="ry" />
    </tlLogic>
    <tlLogic id="577406877" offset="0" programID="1" type="static">	
        <phase duration="16" state="GGr" />
        <phase duration="5" state="yyr" />
        <phase duration="16" state="rrG" />
        <phase duration="5" state="rry" />
    </tlLogic>
    <tlLogic id="667193418" offset="0" programID="1" type="static">	
        <phase duration="60" state="GrrGGrrrr" />
        <phase duration="5" state="yrryyrrrr" />
        <phase duration="28" state="rGGrrGrrr" />
        <phase duration="5" state="ryyrryrrr" />
        <phase duration="43" state="rrrrrrGGG" />
        <phase duration="5" state="rrrrrryyy" />
    </tlLogic>
</additional>