<additional>
  <vType id="passenger" maxSpeed="50" vClass="passenger"/>
</additional>