<?xml version="1.0" encoding="UTF-8"?>

<!-- generated on 2017年08月23日 (週三) 21時06分29秒 by Netedit Version 0.28.0
<?xml version="1.0" encoding="UTF-8"?>

<configuration xmlns:xsi="http://www.w3.org/2001/XMLSchema-instance" xsi:noNamespaceSchemaLocation="http://sumo.dlr.de/xsd/netedit.exeConfiguration.xsd">

    <input>
        <sumo-net-file value="alameda.net.xml"/>
    </input>

    <output>
        <output-file value="alameda.net.xml"/>
    </output>

    <processing>
        <no-turnarounds value="true"/>
        <offset.disable-normalization value="true"/>
        <lefthand value="false"/>
        <junctions.corner-detail value="0"/>
    </processing>

    <visualisation>
        <registry-viewport value="true"/>
    </visualisation>

</configuration>
-->

<net version="0.27" xmlns:xsi="http://www.w3.org/2001/XMLSchema-instance" xsi:noNamespaceSchemaLocation="http://sumo.dlr.de/xsd/net_file.xsd">

    <location netOffset="-372553.76,-4063751.64" convBoundary="0.00,217.51,1344.55,1094.83" origBoundary="-4.432015,36.710920,-4.412069,36.721121" projParameter="+proj=utm +zone=30 +ellps=WGS84 +datum=WGS84 +units=m +no_defs"/>

    <edge id=":1433679391_0" function="internal">
        <lane id=":1433679391_0_0" index="0" disallow="tram rail_urban rail rail_electric ship" speed="13.89" length="0.30" shape="416.23,709.71 416.14,710.00"/>
        <lane id=":1433679391_0_1" index="1" disallow="tram rail_urban rail rail_electric ship" speed="13.89" length="0.30" shape="413.07,708.74 412.99,709.02"/>
        <lane id=":1433679391_0_2" index="2" disallow="tram rail_urban rail rail_electric ship" speed="13.89" length="0.30" shape="409.92,707.77 409.83,708.05"/>
    </edge>
    <edge id=":1628306457_0" function="internal">
        <lane id=":1628306457_0_0" index="0" disallow="tram rail_urban rail rail_electric ship" speed="13.89" length="0.29" shape="140.33,541.30 140.41,541.34 140.46,541.37 140.52,541.39 140.60,541.41"/>
    </edge>
    <edge id=":1628339364_0" function="internal">
        <lane id=":1628339364_0_0" index="0" allow="delivery bicycle pedestrian" speed="9.73" length="6.45" shape="460.81,736.43 462.22,737.43 462.68,738.84 463.13,740.27 464.52,741.31"/>
    </edge>
    <edge id=":1628339364_1" function="internal">
        <lane id=":1628339364_1_0" index="0" disallow="tram rail_urban rail rail_electric ship" speed="13.89" length="4.07" shape="460.81,736.43 463.64,737.31"/>
        <lane id=":1628339364_1_1" index="1" disallow="tram rail_urban rail rail_electric ship" speed="13.89" length="4.07" shape="459.86,739.59 464.80,741.16"/>
    </edge>
    <edge id=":1628378034_0" function="internal">
        <lane id=":1628378034_0_0" index="0" disallow="tram rail_urban rail rail_electric ship" speed="13.89" length="11.86" shape="476.00,537.75 473.43,538.62 471.25,540.24 469.46,542.63 468.05,545.77"/>
    </edge>
    <edge id=":1628378034_1" function="internal">
        <lane id=":1628378034_1_0" index="0" disallow="tram rail_urban rail rail_electric ship" speed="13.89" length="12.77" shape="473.09,534.45 468.05,545.77"/>
        <lane id=":1628378034_1_1" index="1" disallow="tram rail_urban rail rail_electric ship" speed="13.89" length="12.77" shape="470.12,533.02 464.93,544.70"/>
        <lane id=":1628378034_1_2" index="2" disallow="tram rail_urban rail rail_electric ship" speed="13.89" length="12.77" shape="467.15,531.59 461.81,543.62"/>
    </edge>
    <edge id=":1628378034_4" function="internal">
        <lane id=":1628378034_4_0" index="0" disallow="tram rail_urban rail rail_electric ship" speed="13.89" length="5.05" shape="459.80,539.73 461.07,540.31 461.82,541.15 462.07,542.26 461.81,543.62"/>
    </edge>
    <edge id=":1936301803_0" function="internal">
        <lane id=":1936301803_0_0" index="0" disallow="tram rail_urban rail rail_electric ship" speed="27.78" length="5.74" shape="609.87,670.82 613.28,675.26"/>
        <lane id=":1936301803_0_1" index="1" disallow="tram rail_urban rail rail_electric ship" speed="27.78" length="5.74" shape="607.21,672.77 610.70,677.32"/>
        <lane id=":1936301803_0_2" index="2" disallow="tram rail_urban rail rail_electric ship" speed="27.78" length="5.74" shape="604.55,674.71 608.12,679.38"/>
    </edge>
    <edge id=":1936301811_0" function="internal">
        <lane id=":1936301811_0_0" index="0" disallow="tram rail_urban rail rail_electric ship" speed="27.78" length="5.07" shape="602.80,682.51 599.69,678.54"/>
        <lane id=":1936301811_0_1" index="1" disallow="tram rail_urban rail rail_electric ship" speed="27.78" length="5.07" shape="605.41,680.49 602.27,676.48"/>
    </edge>
    <edge id=":1942565752_0" function="internal">
        <lane id=":1942565752_0_0" index="0" disallow="tram rail_urban rail rail_electric ship" speed="13.89" length="2.79" shape="224.85,659.49 227.65,660.33"/>
        <lane id=":1942565752_0_1" index="1" disallow="tram rail_urban rail rail_electric ship" speed="13.89" length="2.79" shape="223.96,662.67 226.64,663.47"/>
        <lane id=":1942565752_0_2" index="2" disallow="tram rail_urban rail rail_electric ship" speed="13.89" length="2.79" shape="223.08,665.85 225.62,666.61"/>
    </edge>
    <edge id=":1942565754_0" function="internal">
        <lane id=":1942565754_0_0" index="0" disallow="tram rail_urban rail rail_electric ship" speed="13.89" length="5.29" shape="221.06,684.88 215.92,683.11"/>
        <lane id=":1942565754_0_1" index="1" disallow="tram rail_urban rail rail_electric ship" speed="13.89" length="5.29" shape="221.99,681.71 217.13,680.04"/>
    </edge>
    <edge id=":1942792088_0" function="internal">
        <lane id=":1942792088_0_0" index="0" disallow="tram rail_urban rail rail_electric ship" speed="27.78" length="2.71" shape="658.44,803.07 658.31,805.74"/>
        <lane id=":1942792088_0_1" index="1" disallow="tram rail_urban rail rail_electric ship" speed="27.78" length="2.71" shape="655.15,802.86 655.01,805.62"/>
    </edge>
    <edge id=":1942792088_2" function="internal">
        <lane id=":1942792088_2_0" index="0" disallow="tram rail_urban rail rail_electric ship" speed="27.78" length="2.41" shape="655.15,802.86 654.24,804.05 653.39,804.40"/>
    </edge>
    <edge id=":1942792088_6" function="internal">
        <lane id=":1942792088_6_0" index="0" speed="27.78" length="2.41" shape="653.39,804.40 652.60,803.94 651.85,802.65"/>
    </edge>
    <edge id=":1942792088_3" function="internal">
        <lane id=":1942792088_3_0" index="0" disallow="tram rail_urban rail rail_electric ship" speed="27.78" length="2.91" shape="648.41,805.39 648.56,802.44"/>
        <lane id=":1942792088_3_1" index="1" disallow="tram rail_urban rail rail_electric ship" speed="27.78" length="2.91" shape="651.71,805.51 651.85,802.65"/>
    </edge>
    <edge id=":1942792088_5" function="internal">
        <lane id=":1942792088_5_0" index="0" disallow="tram rail_urban rail rail_electric ship" speed="27.78" length="2.41" shape="651.71,805.51 652.58,804.30 653.42,803.91"/>
    </edge>
    <edge id=":1942792088_7" function="internal">
        <lane id=":1942792088_7_0" index="0" speed="27.78" length="2.41" shape="653.42,803.91 654.23,804.36 655.01,805.62"/>
    </edge>
    <edge id=":1942792090_0" function="internal">
        <lane id=":1942792090_0_0" index="0" disallow="tram rail_urban rail rail_electric ship" speed="13.89" length="5.09" shape="682.81,827.78 687.61,829.40"/>
        <lane id=":1942792090_0_1" index="1" disallow="tram rail_urban rail rail_electric ship" speed="13.89" length="5.09" shape="681.75,830.91 686.57,832.53"/>
        <lane id=":1942792090_0_2" index="2" disallow="tram rail_urban rail rail_electric ship" speed="13.89" length="5.09" shape="680.68,834.03 685.52,835.66"/>
    </edge>
    <edge id=":1942792091_0" function="internal">
        <lane id=":1942792091_0_0" index="0" disallow="tram rail_urban rail rail_electric ship" speed="13.89" length="5.01" shape="682.74,843.66 677.99,842.08"/>
        <lane id=":1942792091_0_1" index="1" disallow="tram rail_urban rail rail_electric ship" speed="13.89" length="5.01" shape="683.78,840.53 679.03,838.95"/>
        <lane id=":1942792091_0_2" index="2" disallow="tram rail_urban rail rail_electric ship" speed="13.89" length="5.01" shape="684.82,837.40 680.08,835.82"/>
    </edge>
    <edge id=":1942792096_0" function="internal">
        <lane id=":1942792096_0_0" index="0" disallow="tram rail_urban rail rail_electric ship" speed="13.89" length="0.30" shape="837.84,879.38 838.12,879.48"/>
        <lane id=":1942792096_0_1" index="1" disallow="tram rail_urban rail rail_electric ship" speed="13.89" length="0.30" shape="836.80,882.51 837.08,882.61"/>
        <lane id=":1942792096_0_2" index="2" disallow="tram rail_urban rail rail_electric ship" speed="13.89" length="0.30" shape="835.76,885.64 836.04,885.74"/>
    </edge>
    <edge id=":1942792097_0" function="internal">
        <lane id=":1942792097_0_0" index="0" disallow="tram rail_urban rail rail_electric ship" speed="13.89" length="0.30" shape="833.34,893.66 833.06,893.56"/>
        <lane id=":1942792097_0_1" index="1" disallow="tram rail_urban rail rail_electric ship" speed="13.89" length="0.30" shape="834.38,890.53 834.10,890.43"/>
        <lane id=":1942792097_0_2" index="2" disallow="tram rail_urban rail rail_electric ship" speed="13.89" length="0.30" shape="835.43,887.40 835.14,887.30"/>
    </edge>
    <edge id=":1942792105_0" function="internal">
        <lane id=":1942792105_0_0" index="0" disallow="tram rail_urban rail rail_electric ship" speed="13.89" length="0.30" shape="1001.71,933.92 1002.00,934.02"/>
        <lane id=":1942792105_0_1" index="1" disallow="tram rail_urban rail rail_electric ship" speed="13.89" length="0.30" shape="1000.68,937.05 1000.96,937.15"/>
        <lane id=":1942792105_0_2" index="2" disallow="tram rail_urban rail rail_electric ship" speed="13.89" length="0.30" shape="999.64,940.19 999.92,940.28"/>
    </edge>
    <edge id=":1942792106_0" function="internal">
        <lane id=":1942792106_0_0" index="0" disallow="tram rail_urban rail rail_electric ship" speed="13.89" length="0.30" shape="997.32,948.41 997.03,948.32"/>
        <lane id=":1942792106_0_1" index="1" disallow="tram rail_urban rail rail_electric ship" speed="13.89" length="0.30" shape="998.35,945.28 998.07,945.18"/>
        <lane id=":1942792106_0_2" index="2" disallow="tram rail_urban rail rail_electric ship" speed="13.89" length="0.30" shape="999.38,942.14 999.10,942.05"/>
    </edge>
    <edge id=":1942792109_0" function="internal">
        <lane id=":1942792109_0_0" index="0" disallow="tram rail_urban rail rail_electric ship" speed="13.89" length="0.30" shape="1102.28,967.36 1102.56,967.46"/>
        <lane id=":1942792109_0_1" index="1" disallow="tram rail_urban rail rail_electric ship" speed="13.89" length="0.30" shape="1101.24,970.49 1101.52,970.59"/>
        <lane id=":1942792109_0_2" index="2" disallow="tram rail_urban rail rail_electric ship" speed="13.89" length="0.30" shape="1100.20,973.62 1100.48,973.72"/>
    </edge>
    <edge id=":1942792111_0" function="internal">
        <lane id=":1942792111_0_0" index="0" disallow="tram rail_urban rail rail_electric ship" speed="13.89" length="0.30" shape="1098.07,981.53 1097.81,981.45"/>
        <lane id=":1942792111_0_1" index="1" disallow="tram rail_urban rail rail_electric ship" speed="13.89" length="0.30" shape="1099.12,978.41 1098.84,978.31"/>
        <lane id=":1942792111_0_2" index="2" disallow="tram rail_urban rail rail_electric ship" speed="13.89" length="0.30" shape="1100.17,975.28 1099.87,975.18"/>
    </edge>
    <edge id=":1945597576_0" function="internal">
        <lane id=":1945597576_0_0" index="0" disallow="tram rail_urban rail rail_electric ship" speed="27.78" length="0.30" shape="456.76,474.97 456.94,475.19"/>
        <lane id=":1945597576_0_1" index="1" disallow="tram rail_urban rail rail_electric ship" speed="27.78" length="0.30" shape="454.20,477.05 454.38,477.29"/>
        <lane id=":1945597576_0_2" index="2" disallow="tram rail_urban rail rail_electric ship" speed="27.78" length="0.30" shape="451.63,479.13 451.83,479.38"/>
    </edge>
    <edge id=":1945597589_0" function="internal">
        <lane id=":1945597589_0_0" index="0" disallow="tram rail_urban rail rail_electric ship" speed="27.78" length="0.30" shape="445.23,484.51 445.05,484.27"/>
        <lane id=":1945597589_0_1" index="1" disallow="tram rail_urban rail rail_electric ship" speed="27.78" length="0.30" shape="447.81,482.45 447.63,482.21"/>
    </edge>
    <edge id=":1945597890_0" function="internal">
        <lane id=":1945597890_0_0" index="0" disallow="tram rail_urban rail rail_electric ship" speed="27.78" length="0.30" shape="506.81,536.87 507.00,537.11"/>
        <lane id=":1945597890_0_1" index="1" disallow="tram rail_urban rail rail_electric ship" speed="27.78" length="0.30" shape="504.26,538.96 504.44,539.20"/>
        <lane id=":1945597890_0_2" index="2" disallow="tram rail_urban rail rail_electric ship" speed="27.78" length="0.30" shape="501.70,541.06 501.89,541.28"/>
    </edge>
    <edge id=":1945597910_0" function="internal">
        <lane id=":1945597910_0_0" index="0" disallow="tram rail_urban rail rail_electric ship" speed="27.78" length="0.30" shape="495.04,547.07 494.86,546.84"/>
        <lane id=":1945597910_0_1" index="1" disallow="tram rail_urban rail rail_electric ship" speed="27.78" length="0.30" shape="497.62,545.02 497.44,544.78"/>
    </edge>
    <edge id=":1945598103_0" function="internal">
        <lane id=":1945598103_0_0" index="0" disallow="tram rail_urban rail rail_electric ship" speed="27.78" length="0.30" shape="545.84,584.83 546.03,585.06"/>
        <lane id=":1945598103_0_1" index="1" disallow="tram rail_urban rail rail_electric ship" speed="27.78" length="0.30" shape="543.29,586.91 543.47,587.15"/>
        <lane id=":1945598103_0_2" index="2" disallow="tram rail_urban rail rail_electric ship" speed="27.78" length="0.30" shape="540.73,589.00 540.92,589.23"/>
    </edge>
    <edge id=":1945598113_0" function="internal">
        <lane id=":1945598113_0_0" index="0" disallow="tram rail_urban rail rail_electric ship" speed="27.78" length="0.30" shape="533.55,595.47 533.37,595.23"/>
        <lane id=":1945598113_0_1" index="1" disallow="tram rail_urban rail rail_electric ship" speed="27.78" length="0.30" shape="536.13,593.41 535.95,593.18"/>
    </edge>
    <edge id=":1945600634_0" function="internal">
        <lane id=":1945600634_0_0" index="0" disallow="tram rail_urban rail rail_electric ship" speed="27.78" length="4.49" shape="451.47,492.33 448.48,488.57"/>
        <lane id=":1945600634_0_1" index="1" disallow="tram rail_urban rail rail_electric ship" speed="27.78" length="4.49" shape="453.67,489.80 451.07,486.52"/>
    </edge>
    <edge id=":1945600634_2" function="internal">
        <lane id=":1945600634_2_0" index="0" disallow="tram rail_urban rail rail_electric ship" speed="25.00" length="5.23" shape="449.71,492.28 449.72,491.09 449.58,490.27 449.20,489.52 448.48,488.57"/>
        <lane id=":1945600634_2_1" index="1" disallow="tram rail_urban rail rail_electric ship" speed="25.00" length="5.23" shape="453.01,492.38 453.02,490.50 452.80,489.20 452.20,488.02 451.07,486.52"/>
    </edge>
    <edge id=":1945600655_0" function="internal">
        <lane id=":1945600655_0_0" index="0" disallow="tram rail_urban rail rail_electric ship" speed="16.67" length="0.77" shape="618.45,704.02 619.06,703.54"/>
    </edge>
    <edge id=":1945600655_1" function="internal">
        <lane id=":1945600655_1_0" index="0" disallow="tram rail_urban rail rail_electric ship" speed="27.78" length="5.00" shape="622.29,707.41 619.06,703.54"/>
        <lane id=":1945600655_1_1" index="1" disallow="tram rail_urban rail rail_electric ship" speed="27.78" length="5.00" shape="624.85,705.34 621.67,701.53"/>
    </edge>
    <edge id=":1945611962_0" function="internal">
        <lane id=":1945611962_0_0" index="0" disallow="tram rail_urban rail rail_electric ship" speed="13.89" length="5.57" shape="506.08,754.25 510.96,755.99"/>
        <lane id=":1945611962_0_1" index="1" disallow="tram rail_urban rail rail_electric ship" speed="13.89" length="5.57" shape="504.79,757.29 510.04,759.16"/>
        <lane id=":1945611962_0_2" index="2" disallow="tram rail_urban rail rail_electric ship" speed="13.89" length="5.57" shape="503.50,760.33 509.13,762.33"/>
    </edge>
    <edge id=":1945611963_0" function="internal">
        <lane id=":1945611963_0_0" index="0" disallow="tram rail_urban rail rail_electric ship" speed="13.89" length="5.31" shape="496.78,797.28 495.15,796.68 494.05,796.22 492.99,795.67 491.47,794.82"/>
        <lane id=":1945611963_0_1" index="1" disallow="tram rail_urban rail rail_electric ship" speed="13.89" length="5.31" shape="497.89,794.17 496.41,793.63 495.42,793.21 494.46,792.71 493.09,791.94"/>
        <lane id=":1945611963_0_2" index="2" disallow="tram rail_urban rail rail_electric ship" speed="13.89" length="5.31" shape="499.00,791.06 497.68,790.58 496.79,790.20 495.93,789.75 494.70,789.06"/>
    </edge>
    <edge id=":1946048472_0" function="internal">
        <lane id=":1946048472_0_0" index="0" allow="delivery bicycle pedestrian" speed="5.56" length="0.82" shape="634.22,728.44 634.00,728.34 633.84,728.29 633.68,728.27 633.44,728.28"/>
    </edge>
    <edge id=":1946048480_0" function="internal">
        <lane id=":1946048480_0_0" index="0" allow="delivery bicycle pedestrian" speed="16.67" length="11.98" shape="644.61,734.87 642.61,732.04 640.41,730.69 637.87,729.89 634.81,728.73"/>
    </edge>
    <edge id=":1946048480_1" function="internal">
        <lane id=":1946048480_1_0" index="0" disallow="tram rail_urban rail rail_electric ship" speed="27.78" length="12.16" shape="644.61,734.87 642.84,731.88 641.27,730.07 639.51,728.38 637.16,725.77"/>
        <lane id=":1946048480_1_1" index="1" disallow="tram rail_urban rail rail_electric ship" speed="27.78" length="12.16" shape="647.55,733.37 645.69,730.20 644.05,728.27 642.20,726.47 639.72,723.70"/>
    </edge>
    <edge id=":2023784241_0" function="internal">
        <lane id=":2023784241_0_0" index="0" disallow="tram rail_urban rail rail_electric ship" speed="13.89" length="6.04" shape="550.49,800.07 548.96,799.58 547.89,799.30 546.80,799.12 545.21,798.90"/>
        <lane id=":2023784241_0_1" index="1" disallow="tram rail_urban rail rail_electric ship" speed="13.89" length="6.04" shape="551.52,796.93 549.81,796.39 548.63,796.08 547.42,795.87 545.64,795.63"/>
        <lane id=":2023784241_0_2" index="2" disallow="tram rail_urban rail rail_electric ship" speed="13.89" length="6.04" shape="552.55,793.79 550.67,793.20 549.36,792.85 548.03,792.62 546.07,792.36"/>
    </edge>
    <edge id=":2023888425_0" function="internal">
        <lane id=":2023888425_0_0" index="0" allow="bicycle" speed="5.56" length="1.61" width="1.00" shape="127.01,676.15 126.67,675.79 126.61,675.49 126.81,675.25 127.27,675.09"/>
    </edge>
    <edge id=":2023888620_0" function="internal">
        <lane id=":2023888620_0_0" index="0" disallow="tram rail_urban rail rail_electric ship" speed="9.73" length="10.75" shape="481.50,795.71 479.51,793.42 477.73,792.13 475.59,791.30 472.50,790.41"/>
    </edge>
    <edge id=":2023888620_1" function="internal">
        <lane id=":2023888620_1_0" index="0" allow="bicycle" speed="5.56" length="12.98" width="1.00" shape="481.50,795.71 479.47,792.95 477.83,790.37 476.42,787.66 475.07,784.50"/>
    </edge>
    <edge id=":2023888620_2" function="internal">
        <lane id=":2023888620_2_0" index="0" allow="bicycle" speed="5.56" length="0.19" width="1.00" shape="481.50,795.71 481.49,795.53"/>
    </edge>
    <edge id=":2023888620_10" function="internal">
        <lane id=":2023888620_10_0" index="0" speed="5.56" length="1.42" width="1.00" shape="481.49,795.53 481.47,795.22 481.60,794.94 481.90,794.88 482.37,795.04"/>
    </edge>
    <edge id=":2023888620_3" function="internal">
        <lane id=":2023888620_3_0" index="0" allow="bicycle" speed="9.73" length="4.30" width="1.00" shape="482.47,791.97 481.51,792.12 481.17,792.68 481.46,793.66 482.37,795.04"/>
    </edge>
    <edge id=":2023888620_4" function="internal">
        <lane id=":2023888620_4_0" index="0" disallow="tram rail_urban rail rail_electric ship" speed="13.89" length="9.79" shape="482.47,791.97 479.47,791.84 477.41,791.64 475.39,791.22 472.50,790.41"/>
        <lane id=":2023888620_4_1" index="1" disallow="tram rail_urban rail rail_electric ship" speed="13.89" length="9.79" shape="482.61,788.67 479.81,788.55 477.89,788.37 476.01,787.97 473.32,787.21"/>
    </edge>
    <edge id=":2023888620_6" function="internal">
        <lane id=":2023888620_6_0" index="0" allow="bicycle" speed="9.73" length="9.13" width="1.00" shape="482.61,788.67 479.89,788.32 477.73,787.51 476.12,786.23 475.07,784.50"/>
    </edge>
    <edge id=":2023888620_7" function="internal">
        <lane id=":2023888620_7_0" index="0" allow="bicycle" speed="5.56" length="12.67" width="1.00" shape="476.09,784.10 477.42,787.21 478.77,789.83 480.36,792.31 482.37,795.04"/>
    </edge>
    <edge id=":2023888620_8" function="internal">
        <lane id=":2023888620_8_0" index="0" disallow="tram rail_urban rail rail_electric ship" speed="9.73" length="0.67" shape="476.09,784.10 476.26,784.74"/>
    </edge>
    <edge id=":2023888620_9" function="internal">
        <lane id=":2023888620_9_0" index="0" allow="bicycle" speed="5.56" length="0.17" width="1.00" shape="476.09,784.10 476.06,784.27"/>
    </edge>
    <edge id=":2023888620_11" function="internal">
        <lane id=":2023888620_11_0" index="0" speed="9.73" length="5.49" shape="476.26,784.74 476.57,785.96 476.27,787.09 475.19,787.51 473.32,787.21"/>
    </edge>
    <edge id=":2023888620_12" function="internal">
        <lane id=":2023888620_12_0" index="0" speed="5.56" length="1.43" width="1.00" shape="476.06,784.27 475.99,784.58 475.78,784.81 475.48,784.78 475.07,784.50"/>
    </edge>
    <edge id=":2023888625_0" function="internal">
        <lane id=":2023888625_0_0" index="0" allow="bicycle" speed="5.56" length="6.49" width="1.00" shape="496.76,801.83 490.58,799.85"/>
    </edge>
    <edge id=":2023888625_1" function="internal">
        <lane id=":2023888625_1_0" index="0" allow="bicycle" speed="5.56" length="0.18" width="1.00" shape="496.76,801.83 496.65,801.69"/>
    </edge>
    <edge id=":2023888625_4" function="internal">
        <lane id=":2023888625_4_0" index="0" speed="5.56" length="1.43" width="1.00" shape="496.65,801.69 496.45,801.44 496.40,801.14 496.62,800.92 497.09,800.78"/>
    </edge>
    <edge id=":2023888625_2" function="internal">
        <lane id=":2023888625_2_0" index="0" allow="bicycle" speed="5.56" length="6.48" width="1.00" shape="490.92,798.80 497.09,800.78"/>
    </edge>
    <edge id=":2023888625_3" function="internal">
        <lane id=":2023888625_3_0" index="0" allow="bicycle" speed="5.56" length="0.18" width="1.00" shape="490.92,798.80 491.03,798.95"/>
    </edge>
    <edge id=":2023888625_5" function="internal">
        <lane id=":2023888625_5_0" index="0" speed="5.56" length="1.43" width="1.00" shape="491.03,798.95 491.23,799.19 491.27,799.50 491.06,799.72 490.58,799.85"/>
    </edge>
    <edge id=":2023888631_0" function="internal">
        <lane id=":2023888631_0_0" index="0" allow="bicycle" speed="5.56" length="5.17" width="1.00" shape="577.19,814.69 575.87,813.91 574.92,813.44 573.91,813.13 572.42,812.79"/>
    </edge>
    <edge id=":2023888631_1" function="internal">
        <lane id=":2023888631_1_0" index="0" allow="bicycle" speed="5.56" length="0.18" width="1.00" shape="577.19,814.69 577.11,814.53"/>
    </edge>
    <edge id=":2023888631_4" function="internal">
        <lane id=":2023888631_4_0" index="0" speed="5.56" length="1.43" width="1.00" shape="577.11,814.53 576.97,814.24 577.00,813.94 577.26,813.77 577.75,813.75"/>
    </edge>
    <edge id=":2023888631_2" function="internal">
        <lane id=":2023888631_2_0" index="0" allow="bicycle" speed="5.56" length="5.54" width="1.00" shape="572.65,811.72 574.25,812.07 575.32,812.41 576.34,812.91 577.75,813.75"/>
    </edge>
    <edge id=":2023888631_3" function="internal">
        <lane id=":2023888631_3_0" index="0" allow="bicycle" speed="5.56" length="0.18" width="1.00" shape="572.65,811.72 572.77,811.85"/>
    </edge>
    <edge id=":2023888631_5" function="internal">
        <lane id=":2023888631_5_0" index="0" speed="5.56" length="1.42" width="1.00" shape="572.77,811.85 572.99,812.07 573.07,812.37 572.88,812.61 572.42,812.79"/>
    </edge>
    <edge id=":2023888666_0" function="internal">
        <lane id=":2023888666_0_0" index="0" allow="bicycle" speed="5.56" length="1.61" width="1.00" shape="988.99,964.58 989.28,964.98 989.31,965.28 989.09,965.49 988.61,965.60"/>
    </edge>
    <edge id=":2041031031_0" function="internal">
        <lane id=":2041031031_0_0" index="0" disallow="tram rail_urban rail rail_electric ship" speed="27.78" length="5.46" shape="660.92,759.58 660.86,765.26"/>
        <lane id=":2041031031_0_1" index="1" disallow="tram rail_urban rail rail_electric ship" speed="27.78" length="5.46" shape="657.63,759.82 657.57,765.05"/>
    </edge>
    <edge id=":2041031031_2" function="internal">
        <lane id=":2041031031_2_0" index="0" disallow="tram rail_urban rail rail_electric ship" speed="27.78" length="2.61" shape="657.63,759.82 656.89,761.11 656.10,761.58 655.92,761.50"/>
    </edge>
    <edge id=":2041031031_6" function="internal">
        <lane id=":2041031031_6_0" index="0" speed="27.78" length="2.21" shape="655.92,761.50 655.25,761.23 654.34,760.05"/>
    </edge>
    <edge id=":2041031031_3" function="internal">
        <lane id=":2041031031_3_0" index="0" disallow="tram rail_urban rail rail_electric ship" speed="27.78" length="4.57" shape="650.98,764.63 651.05,760.28"/>
        <lane id=":2041031031_3_1" index="1" disallow="tram rail_urban rail rail_electric ship" speed="27.78" length="4.57" shape="654.28,764.84 654.34,760.05"/>
    </edge>
    <edge id=":2041031031_5" function="internal">
        <lane id=":2041031031_5_0" index="0" disallow="tram rail_urban rail rail_electric ship" speed="27.78" length="2.41" shape="654.28,764.84 655.18,763.66 656.03,763.30"/>
    </edge>
    <edge id=":2041031031_7" function="internal">
        <lane id=":2041031031_7_0" index="0" speed="27.78" length="2.41" shape="656.03,763.30 656.83,763.77 657.57,765.05"/>
    </edge>
    <edge id=":2070949328_0" function="internal">
        <lane id=":2070949328_0_0" index="0" disallow="tram rail_urban rail rail_electric ship" speed="13.89" length="9.65" shape="303.97,713.71 301.40,712.52 299.80,711.36 298.19,710.22 295.60,709.09"/>
        <lane id=":2070949328_0_1" index="1" disallow="tram rail_urban rail rail_electric ship" speed="13.89" length="9.65" shape="305.08,710.60 302.49,709.40 300.87,708.24 299.24,707.09 296.63,705.96"/>
    </edge>
    <edge id=":2070949328_2" function="internal">
        <lane id=":2070949328_2_0" index="0" disallow="tram rail_urban rail rail_electric ship" speed="13.89" length="7.95" shape="306.19,707.49 303.63,706.36 301.95,705.12 301.16,703.75 301.25,702.27"/>
    </edge>
    <edge id=":2070949328_3" function="internal">
        <lane id=":2070949328_3_0" index="0" disallow="tram rail_urban rail rail_electric ship" speed="13.89" length="9.13" shape="304.33,703.48 303.26,705.32 301.62,706.35 299.41,706.56 296.63,705.96"/>
    </edge>
    <edge id=":2070949328_4" function="internal">
        <lane id=":2070949328_4_0" index="0" disallow="tram rail_urban rail rail_electric ship" speed="13.89" length="4.82" shape="304.33,703.48 303.10,704.33 302.18,704.41 301.57,703.72 301.25,702.27"/>
    </edge>
    <edge id=":248606010_0" function="internal">
        <lane id=":248606010_0_0" index="0" disallow="tram rail_urban rail rail_electric ship" speed="27.78" length="6.28" shape="654.87,727.26 656.10,727.99 657.34,727.69 658.67,727.31 660.15,727.78"/>
        <lane id=":248606010_0_1" index="1" disallow="tram rail_urban rail rail_electric ship" speed="27.78" length="6.28" shape="652.29,729.32 653.66,730.22 655.03,730.06 656.50,729.81 658.16,730.41"/>
        <lane id=":248606010_0_2" index="2" disallow="tram rail_urban rail rail_electric ship" speed="27.78" length="6.28" shape="649.72,731.38 651.23,732.45 652.73,732.43 654.33,732.29 656.16,733.04"/>
    </edge>
    <edge id=":248606010_3" function="internal">
        <lane id=":248606010_3_0" index="0" disallow="tram rail_urban rail rail_electric ship" speed="27.78" length="5.34" shape="649.72,731.38 653.07,735.39"/>
        <lane id=":248606010_3_1" index="1" disallow="tram rail_urban rail rail_electric ship" speed="27.78" length="5.34" shape="649.72,731.38 650.32,732.72 650.11,733.85 649.78,735.06 650.01,736.62"/>
    </edge>
    <edge id=":248606018_0" function="internal">
        <lane id=":248606018_0_0" index="0" disallow="tram rail_urban rail rail_electric ship" speed="27.78" length="5.92" shape="674.18,753.84 668.55,752.06"/>
        <lane id=":248606018_0_1" index="1" disallow="tram rail_urban rail rail_electric ship" speed="27.78" length="5.92" shape="675.18,750.70 669.53,748.91"/>
        <lane id=":248606018_0_2" index="2" disallow="tram rail_urban rail rail_electric ship" speed="27.78" length="5.92" shape="676.19,747.56 670.52,745.76"/>
    </edge>
    <edge id=":248606020_0" function="internal">
        <lane id=":248606020_0_0" index="0" disallow="tram rail_urban rail rail_electric ship" speed="20.84" length="10.70" shape="658.07,812.54 658.30,815.60 659.21,818.05 660.81,819.88 663.10,821.08"/>
    </edge>
    <edge id=":248606020_1" function="internal">
        <lane id=":248606020_1_0" index="0" disallow="tram rail_urban rail rail_electric ship" speed="27.78" length="13.20" shape="658.07,812.54 657.56,825.74"/>
        <lane id=":248606020_1_1" index="1" disallow="tram rail_urban rail rail_electric ship" speed="27.78" length="13.20" shape="654.77,812.42 654.27,825.59"/>
    </edge>