<routes xmlns:xsi="http://www.w3.org/2001/XMLSchema-instance" xsi:noNamespaceSchemaLocation="http://sumo.dlr.de/xsd/routes_file.xsd">
    <vType id="passenger" maxSpeed="50.00" vClass="passenger" />
    <vehicle depart="0.40" departLane="best" id="0" type="passenger">
        <route edges="-232496355#3 403863070#1 403863070#2 30074977 418251597 23683304#0 23683304#1 23683304#2 23683304#3 330465829#0 330465829#1 330465829#2 385202255#1 385202255#2 385202255#3" />
    </vehicle>
    <vehicle depart="1.00" departLane="best" id="1" type="passenger">
        <route edges="296215789#5 232496368#0 232496368#1 232496368#2 232496368#3 232496368#4 232496368#5 232496368#6 232496368#7 232496368#8 232496368#9 232496368#10 184383639#0 184383639#1 184383639#2 401954570 330465830#0 330465830#1 184383636#0 184383636#1 386281940#0 386281940#1 257245119#0 -35164004#4 -46142799#3" />
    </vehicle>
    <vehicle depart="1.40" departLane="best" id="2" type="passenger">
        <route edges="254607165#1 184383552 184383558#0 184383558#1 184383558#2 184383558#3 184383558#4 184383558#5 184383558#6 184383558#7 -232496368#10 -232496368#9 -232496368#8 -94059895#4 -94059895#3 -94059895#2 -94059895#1" />
    </vehicle>
    <vehicle depart="1.80" departLane="best" id="3" type="passenger">
        <route edges="272200694#2 272200694#3 272200694#4 272200694#5 296215789#5 232496368#0 232496368#1 232496368#2 232496368#3 232496368#4 232496368#5 232496368#6 232496368#7 232496368#8 232496368#9 232496368#10 184383639#0 184383639#1 184383639#2 401954570 330465830#0 330465830#1 -296980007#1" />
    </vehicle>
    <vehicle depart="2.20" departLane="best" id="4" type="passenger">
        <route edges="401959566#1 -401959564#3 385202255#10 385202256#0 385202256#1 386281939#0 386281939#1 386281939#2 386281939#3 386281939#4 418972774#0 184383576#7 184383578#0 -184383578#0" />
    </vehicle>
    <vehicle depart="2.40" departLane="best" id="5" type="passenger">
        <route edges="330465827#2 330465827#3 23506825 25192832 418251596 383026340#0 401954570 330465830#0 88867313#0 88867313#1" />
    </vehicle>
    <vehicle depart="3.00" departLane="best" id="6" type="passenger">
        <route edges="88867317#1 -88867317#1 -88867317#0 -330465828#7 -330465828#6 -330465828#5 -330465828#4 -330465828#3 -330465828#2 -330465828#1 -330465828#0 -23683303 257245112#3 257245112#4 257245112#5 92071606#4 23683304#1" />
    </vehicle>
    <vehicle depart="4.40" departLane="best" id="7" type="passenger">
        <route edges="383026348#3 265614897#3 403863070#0 403863070#1 403863070#2 30074977 418251596 383026340#0 -184383639#2 -184383639#1 -184383639#0 -296980003#2 -296980003#1 23582546#0 -23582546#0" />
    </vehicle>
    <vehicle depart="4.80" departLane="best" id="8" type="passenger">
        <route edges="232496355#2 403863070#1 403863070#2 30074977 418251596 383026340#0 -184383639#2 -184383639#1 -184383639#0 -184383558#7 -184383558#6 -184383558#5" />
    </vehicle>
    <vehicle depart="5.20" departLane="best" id="9" type="passenger">
        <route edges="23582544#5 23582544#6 23582544#7 385202258#0 385202258#1 296980003#0 296980003#1 296980003#2 184383639#0 184383639#1 184383639#2 401954570 330465830#0 330465830#1 184383636#0 184383636#1 385202256#0 46142799#2" />
    </vehicle>
    <vehicle depart="5.60" departLane="best" id="10" type="passenger">
        <route edges="92071655#0 272200694#1 272200694#2 272200694#3 272200694#4 272200694#5 296215789#5 232496368#0 232496368#1 232496368#2 232496368#3 232496368#4 232496368#5 232496368#6 232496368#7 232496368#8 232496368#9 232496368#10 184383639#0 184383639#1 184383639#2 401954570 330465830#0 330465830#1 184383636#0 184383636#1 -184383636#1" />
    </vehicle>
    <vehicle depart="6.00" departLane="best" id="11" type="passenger">
        <route edges="184383587#0 184383587#1 184383587#2 -23582544#0 254607165#1 184383586 255537694 184383588#0 184383588#1 184383588#2 -184383576#7 -184383576#6 -184383576#5 -184383576#4 -35164004#1" />
    </vehicle>
    <vehicle depart="6.40" departLane="best" id="12" type="passenger">
        <route edges="296980007#1 -330465830#1 -330465830#0 -401954570 -184383639#2 -184383639#1 -184383639#0 -232496368#10 -232496368#9 -232496368#8 -232496368#7 -232496368#6 -232496368#5 -232496368#4 232496368#4" />
    </vehicle>
    <vehicle depart="6.80" departLane="best" id="13" type="passenger">
        <route edges="-296980004#5 296980004#5 255537686#4 -25568481#4 -25568481#3 -25568481#2 -25568481#1 184383558#6 -184383558#6" />
    </vehicle>
    <vehicle depart="7.20" departLane="best" id="14" type="passenger">
        <route edges="23582546#4 -23582546#4 -23582546#3 -23582546#2 -23582546#1 -23582546#0 -296980003#0 -385202258#1 -385202258#0 385202258#0" />
    </vehicle>
    <vehicle depart="7.80" departLane="best" id="15" type="passenger">
        <route edges="-46142799#9 -46142799#8 -184383576#5 -88867300#1 -386281939#2 35164004#3 35164004#4 -35164004#4" />
    </vehicle>
    <vehicle depart="8.40" departLane="best" id="16" type="passenger">
        <route edges="232496355#1 232496355#2 403863070#1 403863070#2 30074977 418251596 383026340#0 383026340#1 383026340#2 383026340#3 383026340#4 25823393#1 25823393#2 25823393#3 184383587#0 184383587#1 184383587#2 184383587#3 184383587#4 184383587#5 184383587#6" />
    </vehicle>
    <vehicle depart="9.40" departLane="best" id="17" type="passenger">
        <route edges="296980001#1 -296980001#1 -296980001#0 -254607164#2 -254607164#1 -254607164#0 -270268067#2 -270268067#1 -270268067#0 -272200694#9 -272200694#8 -272200694#7 272200694#7" />
    </vehicle>
    <vehicle depart="9.60" departLane="best" id="18" type="passenger">
        <route edges="-184383576#0 -330465830#1 -330465830#0 -401954570 -184383639#2 -184383639#1 -184383639#0 -296980003#2 -296980003#1 23582546#0 23582546#1 23582546#2 23582546#3 23582546#4 -23582546#4" />
    </vehicle>
    <vehicle depart="9.80" departLane="best" id="19" type="passenger">
        <route edges="-184383636#0 -330465830#1 -330465830#0 -401954570 -184383639#2 -184383639#1 -184383639#0 -232496368#10 -93331250#1 93331250#1" />
    </vehicle>
    <vehicle depart="10.20" departLane="best" id="20" type="passenger">
        <route edges="92041049#3 92041049#4 92041049#5 330465828#1 330465828#2 330465828#3 330465828#4 330465828#5 330465828#6 330465828#7 330465828#8 296980007#0 296980007#1 -330465830#1 -330465830#0 -401954570 -184383639#2 -184383639#1 -184383639#0 -296980003#2 -296980003#1 -296980003#0 385202257" />
    </vehicle>
    <vehicle depart="10.60" departLane="best" id="21" type="passenger">
        <route edges="92041049#7 385202255#2 385202255#3 385202255#4 385202255#5 385202255#6 385202255#7 385202255#8 385202255#9 385202255#10 -184383636#1 -184383636#0 -330465830#1 -330465830#0 -401954570 383026340#1 383026340#2 383026340#3 383026340#4 25823393#1 25823393#2 25823393#3 184383587#0 184383587#1 184383587#2 -23582544#0 254607165#1" />
    </vehicle>
    <vehicle depart="10.80" departLane="best" id="22" type="passenger">
        <route edges="-272200697#0 272200697#0 272200697#1 272200697#2 272200697#3 418251597 23683304#0 23683304#1 23683304#2 23683304#3 330465829#0 330465829#1 330465829#2 385202255#1 385202255#2" />
    </vehicle>
    <vehicle depart="11.20" departLane="best" id="23" type="passenger">
        <route edges="92041049#0 92041049#1 92041049#2 24149482#0 24149482#1 88867315#0 88867315#1 330465828#4 330465828#5 330465828#6 330465828#7 330465828#8 296980007#0 296980007#1 184383636#0 184383636#1 385202256#0 385202256#1 386281939#0 -71928163#0" />
    </vehicle>
    <vehicle depart="11.40" departLane="best" id="24" type="passenger">
        <route edges="25192832 418251597 23683304#0 23683304#1 23683304#2 23683304#3 330465828#0 330465828#1 330465828#2 330465828#3 330465828#4 330465828#5 330465828#6 330465828#7 330465828#8 296980007#0 296980007#1 184383576#0 184383576#1 184383576#2 184383576#3 184383576#4 184383576#5 184383576#6 -184383576#6" />
    </vehicle>
    <vehicle depart="12.00" departLane="best" id="25" type="passenger">
        <route edges="25568481#4 -25568481#4 -25568481#3 -25568481#2 -51005978#1 -51005978#0" />
    </vehicle>
    <vehicle depart="12.60" departLane="best" id="26" type="passenger">
        <route edges="330465828#6 -330465828#6 -330465828#5 -330465828#4 -330465828#3 -330465828#2 -330465828#1 -330465828#0 -23683303 257245112#3 257245112#4 257245112#5 257245112#6 257245112#7 25192832 -272200697#3 -272200697#2 -272200697#1 232496362#1 -232496362#1" />
    </vehicle>
    <vehicle depart="13.00" departLane="best" id="27" type="passenger">
        <route edges="35164004#1 -184383576#3 -184383576#2 -184383576#1 -184383576#0 -330465830#1 -330465830#0 -401954570 -184383639#2 -184383639#1 -184383639#0 -296980003#2 -296980003#1 23582546#0 23582546#1 23582546#2 23582546#3 23582546#4 23582546#5 23582546#6 23582546#7" />
    </vehicle>
    <vehicle depart="13.40" departLane="best" id="28" type="passenger">
        <route edges="-401959564#4 -401959564#3 385202255#10 386281940#0 386281940#1 257245119#0 257245119#1 257245119#2 418972773#0" />
    </vehicle>
    <vehicle depart="14.20" departLane="best" id="29" type="passenger">
        <route edges="92041158 -401959567#1 -401959567#0 -403863073 -184383636#0 -330465830#1 -330465830#0 -401954570 383026340#1 383026340#2 383026340#3 -296980004#4" />
    </vehicle>
    <vehicle depart="14.60" departLane="best" id="30" type="passenger">
        <route edges="-42680532#1 -42680532#0 418972773#1 418972774#0 418972774#1 418972774#2 255537686#1 255537686#2 255537686#3 255537686#4 255537686#5 -401954570 -184383639#2 -184383639#1 -184383639#0 -232496368#10 -232496368#9 -232496368#8 -232496368#7 -232496368#6 232496368#6" />
    </vehicle>
    <vehicle depart="15.00" departLane="best" id="31" type="passenger">
        <route edges="385202258#1 296980003#0 296980003#1 296980003#2 184383639#0 184383639#1 184383639#2 401954570 330465830#0 330465830#1 184383636#0 184383636#1 385202256#0 385202256#1 386281939#0 386281939#1 386281939#2 -386281939#2" />
    </vehicle>
    <vehicle depart="15.40" departLane="best" id="32" type="passenger">
        <route edges="-92041049#3 24149482#0 24149482#1 88867315#0 88867315#1 -330465828#3 88867322#1 88867322#2 88867322#3 88867322#4 88867322#5 88867322#6" />
    </vehicle>
    <vehicle depart="15.80" departLane="best" id="33" type="passenger">
        <route edges="-221608654#1 221608654#1 221608654#2 221608654#3 221608654#4 296980007#0 296980007#1 184383636#0 184383636#1 386281940#0 386281940#1 257245119#0 -35164004#4 46142799#4" />
    </vehicle>
    <vehicle depart="16.00" departLane="best" id="34" type="passenger">
        <route edges="-46142799#3 -46142799#2 -385202256#0 -385202255#10 401959564#3 -401959566#1 -401959566#0 -88867327#1 -88867327#0" />
    </vehicle>
    <vehicle depart="16.40" departLane="best" id="35" type="passenger">
        <route edges="88867313#2 88867313#3 -35164004#0 -296980004#5 383026340#4 25823393#1 25823393#2 25823393#3 -184383552 184383586" />
    </vehicle>
    <vehicle depart="16.60" departLane="best" id="36" type="passenger">
        <route edges="-92041158 -385202255#8 -385202255#7 -385202255#6 -385202255#5 -385202255#4 -385202255#3 -385202255#2 -385202255#1 -385202255#0 257245112#1 257245112#2 257245112#3 257245112#4 257245112#5 257245112#6 257245112#7 25192832 -272200697#3 -272200697#2 -94059895#0 92071741#4 -52254946#2 52254946#2" />
    </vehicle>
    <vehicle depart="17.00" departLane="best" id="37" type="passenger">
        <route edges="-46142799#8 -184383576#5 -184383576#4 -184383576#3 -184383576#2 -184383576#1 -184383576#0 -330465830#1 -330465830#0" />
    </vehicle>
    <vehicle depart="18.20" departLane="best" id="38" type="passenger">
        <route edges="330465827#1 330465827#2 330465827#3 23683304#0 23683304#1 23683304#2 23683304#3 330465829#0 330465829#1 330465829#2 385202255#1 -92041049#7" />
    </vehicle>
    <vehicle depart="19.00" departLane="best" id="39" type="passenger">
        <route edges="92041049#2 -92041049#2 -92041049#1 -92041049#0 330465827#3 23506825 25192832 418251596 383026340#0 383026340#1 383026340#2 383026340#3 296980004#5" />
    </vehicle>
    <vehicle depart="19.20" departLane="best" id="40" type="passenger">
        <route edges="232496355#8 -232496355#8 -232496355#7 -232496355#6 -232496355#5 -232496355#4 -232496355#3 403863070#1 403863070#2 30074977 418251597 23683304#0" />
    </vehicle>
    <vehicle depart="20.00" departLane="best" id="41" type="passenger">
        <route edges="-232501700#0 -385202257 296980003#0 296980003#1 296980003#2 184383639#0 184383639#1 184383639#2 401954570 330465830#0" />
    </vehicle>
    <vehicle depart="20.60" departLane="best" id="42" type="passenger">
        <route edges="257245112#7 383026348#0 383026348#1 232496355#4 232496355#5 232496355#6 232496355#7 -232496355#7" />
    </vehicle>
    <vehicle depart="20.80" departLane="best" id="43" type="passenger">
        <route edges="270585771#0 -42680532#0 418972773#1 418972774#0 418972774#1 418972774#2 255537686#1 255537686#2 255537686#3 255537686#4 255537686#5 -401954570 -184383639#2 -184383639#1 -184383639#0 -232496368#10 -232496368#9 -232496368#8" />
    </vehicle>
    <vehicle depart="21.20" departLane="best" id="44" type="passenger">
        <route edges="385202255#10 -385202255#10 -385202255#9 -385202255#8 -385202255#7 -385202255#6 -385202255#5 -385202255#4 -385202255#3 -385202255#2 -92041049#7" />
    </vehicle>
    <vehicle depart="21.60" departLane="best" id="45" type="passenger">
        <route edges="-386281940#1 -386281940#0 -184383636#1 403863073" />
    </vehicle>
    <vehicle depart="21.80" departLane="best" id="46" type="passenger">
        <route edges="296980004#3 296980004#4 296980004#5 255537686#4 280728219#0" />
    </vehicle>
    <vehicle depart="22.20" departLane="best" id="47" type="passenger">
        <route edges="-35164004#3 -386281939#1 -386281939#0 -385202256#1 -385202256#0 -184383636#1 -184383636#0 -330465830#1 -330465830#0 -401954570 -184383639#2 -184383639#1 -184383639#0 -232496368#10 -232496368#9 -232496368#8 -232496368#7 -232496368#6 -232496368#5 -232496368#4 -232496368#3 -232496368#2 -232496368#1 -232496368#0 -296215789#5 -296215789#4 -296215789#3 296215789#3" />
    </vehicle>
    <vehicle depart="23.00" departLane="best" id="48" type="passenger">
        <route edges="272200694#5 296215789#5 232496368#0 232496368#1 232496368#2 232496368#3 232496368#4 232496368#5 232496368#6 232496368#7 232496368#8 232496368#9 232496368#10 184383639#0 184383639#1 184383639#2 401954570 330465830#0 330465830#1 184383636#0 184383636#1 385202256#0 46142799#2 46142799#3" />
    </vehicle>
    <vehicle depart="23.20" departLane="best" id="49" type="passenger">
        <route edges="88867300#2 -88867300#2 -88867300#1 -386281939#2 -386281939#1 -386281939#0 -385202256#1 -385202256#0 -385202255#10 401959564#3 -401959566#1 -401959566#0 -88867327#1 -88867327#0 -88867325#0" />
    </vehicle>
    <vehicle depart="23.80" departLane="best" id="50" type="passenger">
        <route edges="232501700#1 232501700#2 -93475347#0 23582546#6 23582546#7 -272200694#8 -272200694#7 -272200694#6 296215789#5 232496368#0 232496368#1 232496368#2 232496368#3 232496368#4 -232496368#4" />
    </vehicle>
    <vehicle depart="24.40" departLane="best" id="51" type="passenger">
        <route edges="-232496355#8 232496355#8 232496355#9 232496355#10 232496355#11 257245112#2 23683303 330465828#0 -92041049#5 -92041049#4 -92041049#3 24149482#0 24149482#1 -24149482#1" />
    </vehicle>
    <vehicle depart="24.80" departLane="best" id="52" type="passenger">
        <route edges="272200694#5 296215789#5 232496368#0 232496368#1 232496368#2 232496368#3 232496368#4 232496368#5 232496368#6 232496368#7 232496368#8 232496368#9 232496368#10 184383639#0 184383639#1 184383639#2 401954570 330465830#0 330465830#1 184383636#0 184383636#1 -385202255#10 401959564#3 -401959566#1 -401959566#0 -88867327#1 -88867327#0" />
    </vehicle>
    <vehicle depart="25.20" departLane="best" id="53" type="passenger">
        <route edges="35983484#1 520932346#0 -272200697#2 -94059895#0 92071741#4 -52254946#2 52254946#2" />
    </vehicle>
    <vehicle depart="25.40" departLane="best" id="54" type="passenger">
        <route edges="-184383578#0 -184383576#7 418972774#1 418972774#2 255537686#1 255537686#2 255537686#3 255537686#4 255537686#5 -401954570 -184383639#2 -184383639#1 -184383639#0 -296980003#2 -314546701" />
    </vehicle>
    <vehicle depart="25.60" departLane="best" id="55" type="passenger">
        <route edges="296980004#5 255537686#4 255537686#5 330465830#0 330465830#1 184383636#0 184383636#1 -385202255#10 -385202255#9 -385202255#8 -385202255#7 -385202255#6 -385202255#5" />
    </vehicle>
    <vehicle depart="25.80" departLane="best" id="56" type="passenger">
        <route edges="296215789#1 296215789#2 296215789#3 296215789#4 272200694#6 272200694#7 272200694#8 -23582546#7 -23582546#6 93475347#0 -232501700#2 -232501700#1 -232501700#0 -385202257 -385202258#1" />
    </vehicle>
    <vehicle depart="26.20" departLane="best" id="57" type="passenger">
        <route edges="232496368#6 -232496368#6 -232496368#5 -232496368#4 -232496368#3 -232496368#2 -232496368#1 -232496368#0 -296215789#5 -296215789#4 -296215789#3" />
    </vehicle>
    <vehicle depart="26.80" departLane="best" id="58" type="passenger">
        <route edges="184383588#1 184383588#2 -184383576#7 418972774#1 418972774#2 255537686#1 255537686#2 255537686#3 255537686#4 255537686#5 -401954570 -184383639#2 -184383639#1 -184383639#0 -296980003#2 -296980003#1 -296980003#0 385202257 232501700#0 232501700#1 232501700#2 -93475347#0" />
    </vehicle>
    <vehicle depart="27.20" departLane="best" id="59" type="passenger">
        <route edges="330465828#0 330465828#1 330465828#2 88867322#1 88867322#2 385202255#4 385202255#5 385202255#6 385202255#7 385202255#8 -385202255#8" />
    </vehicle>
    <vehicle depart="27.40" departLane="best" id="60" type="passenger">
        <route edges="-272200694#6 -272200694#5 -272200694#4 -272200694#3 -272200694#2 -272200694#1 92071655#1 92071655#2 -232496362#1 272200697#1 272200697#2 272200697#3 418251596" />
    </vehicle>
    <vehicle depart="27.80" departLane="best" id="61" type="passenger">
        <route edges="-330465828#6 -330465828#5 -330465828#4 -330465828#3 -330465828#2 -330465828#1 -330465828#0 330465829#0 330465829#1 330465829#2 -385202255#0 257245112#1" />
    </vehicle>
    <vehicle depart="28.20" departLane="best" id="62" type="passenger">
        <route edges="385202255#5 385202255#6 385202255#7 385202255#8 385202255#9 385202255#10 -184383636#1 -184383636#0 -330465830#1 -330465830#0 -401954570 -184383639#2 -184383639#1 -184383639#0 -296980003#2 -296980003#1 -296980003#0 -254607168 254607164#0 254607164#1 254607164#2 -296213172#0" />
    </vehicle>
    <vehicle depart="28.60" departLane="best" id="63" type="passenger">
        <route edges="-386281939#3 -386281939#2 -386281939#1 -386281939#0 -385202256#1 -385202256#0 -184383636#1 -184383636#0 -296980007#1 -296980007#0 -330465828#8 -330465828#7 -330465828#6 -330465828#5 330465828#5" />
    </vehicle>
    <vehicle depart="29.60" departLane="best" id="64" type="passenger">
        <route edges="-296980001#3 -296980001#2 -296980001#1 -296980001#0 -254607164#2 -254607164#1 -254607164#0 254607168 296980003#0 296980003#1 296980003#2 -232496368#10 -232496368#9 -232496368#8 -94059895#4 -94059895#3 -94059895#2 -94059895#1 -272200697#1 232496362#1 -232496362#1" />
    </vehicle>
    <vehicle depart="30.00" departLane="best" id="65" type="passenger">
        <route edges="330465828#1 330465828#2 330465828#3 330465828#4 330465828#5 330465828#6 330465828#7 330465828#8 296980007#0 296980007#1 -330465830#1 -330465830#0 -401954570 -184383639#2 -184383639#1 -184383639#0 -296980003#2 -296980003#1 23582546#0 23582546#1" />
    </vehicle>
    <vehicle depart="30.20" departLane="best" id="66" type="passenger">
        <route edges="401959566#0 401959566#1 -401959564#3 385202255#10 -184383636#1 -184383636#0 -330465830#1 -330465830#0 -401954570 -184383639#2 -184383639#1 -184383639#0 -296980003#2 -296980003#1 -296980003#0 -385202258#1 -385202258#0 385202258#0" />
    </vehicle>
    <vehicle depart="30.40" departLane="best" id="67" type="passenger">
        <route edges="254607168 296980003#0 296980003#1 296980003#2 184383639#0 184383639#1 184383639#2 401954570 330465827#0 330465827#1 330465827#2 330465827#3 23683304#0 -92071606#4" />
    </vehicle>
    <vehicle depart="30.60" departLane="best" id="68" type="passenger">
        <route edges="-385202255#3 385202255#3 385202255#4 385202255#5 385202255#6 385202255#7 385202255#8 385202255#9 385202255#10 385202256#0 385202256#1 386281939#0 386281939#1 386281939#2 88867300#1 184383576#5 46142799#8" />
    </vehicle>
    <vehicle depart="32.00" departLane="best" id="69" type="passenger">
        <route edges="-184383636#0 -330465830#1 -330465830#0 -401954570 -184383639#2 -184383639#1 -184383639#0 -296980003#2 -296980003#1 -296980003#0 -254607168 254607164#0 254607164#1 254607164#2 296980001#0" />
    </vehicle>
    <vehicle depart="32.40" departLane="best" id="70" type="passenger">
        <route edges="-184383578#1 -184383578#0 -184383576#7 418972774#1 418972774#2 255537686#1 255537686#2 255537686#3 255537686#4 255537686#5 -401954570 -184383639#2 -184383639#1 -184383639#0 -296980003#2" />
    </vehicle>
    <vehicle depart="33.40" departLane="best" id="71" type="passenger">
        <route edges="232496362#0 272200697#1 94059895#1 94059895#2 94059895#3 94059895#4 -232496368#7 -232496368#6 -232496368#5 -232496368#4 -232496368#3 -232496368#2" />
    </vehicle>
    <vehicle depart="33.80" departLane="best" id="72" type="passenger">
        <route edges="88867315#0 88867315#1 330465828#4 330465828#5 330465828#6 330465828#7 330465828#8 296980007#0 296980007#1 184383576#0 184383576#1 184383576#2 184383576#3 184383576#4 184383576#5 184383576#6 184383576#7 184383578#0 184383578#1" />
    </vehicle>
    <vehicle depart="34.20" departLane="best" id="73" type="passenger">
        <route edges="23683304#2 23683304#3 330465829#0 330465829#1 -232496355#12 -232496355#11 -232496355#10 -232496355#9 -232496355#8 -232496355#7 -232496355#6" />
    </vehicle>
    <vehicle depart="34.60" departLane="best" id="74" type="passenger">
        <route edges="330465828#7 330465828#8 296980007#0 296980007#1 184383576#0 184383576#1 184383576#2 184383576#3 184383576#4" />
    </vehicle>
    <vehicle depart="35.00" departLane="best" id="75" type="passenger">
        <route edges="184383576#7 184383588#3 -418972770 -386281939#4 -386281939#3 -386281939#2 -386281939#1 -386281939#0 -385202256#1 -385202256#0 385202256#0" />
    </vehicle>
    <vehicle depart="35.40" departLane="best" id="76" type="passenger">
        <route edges="272200694#3 272200694#4 272200694#5 296215789#5 232496368#0 232496368#1 232496368#2 232496368#3 232496368#4 232496368#5 232496368#6 232496368#7 232496368#8 232496368#9 232496368#10 184383639#0 184383639#1 184383639#2 383026340#1 383026340#2 383026340#3 383026340#4 383026340#5 255537694 184383588#0 184383588#1 184383588#2 184383588#3" />
    </vehicle>
    <vehicle depart="36.40" departLane="best" id="77" type="passenger">
        <route edges="403863070#1 403863070#2 30074977 418251596 383026340#0 -184383639#2 -184383639#1 -184383639#0 -296980003#2 -296980003#1 -296980003#0 -254607168 -312561040#1 -312561040#0 312561040#0" />
    </vehicle>
    <vehicle depart="37.20" departLane="best" id="78" type="passenger">
        <route edges="-386281939#2 -35164004#2 -35164004#1 -35164004#0 -296980004#5 -296980004#4 -296980004#3 184383558#4 296213172#3" />
    </vehicle>
    <vehicle depart="37.60" departLane="best" id="79" type="passenger">
        <route edges="-385202255#9 -385202255#8 -385202255#7 -385202255#6 -385202255#5 -385202255#4 -88867322#2 88867310#2 88867314#2" />
    </vehicle>
    <vehicle depart="38.00" departLane="best" id="80" type="passenger">
        <route edges="330465828#4 330465828#5 330465828#6 330465828#7 330465828#8 296980007#0 296980007#1 -330465830#1 -330465830#0 -401954570 -184383639#2 -184383639#1 -184383639#0 -184383558#7 -184383558#6 -25568481#0" />
    </vehicle>
    <vehicle depart="38.40" departLane="best" id="81" type="passenger">
        <route edges="272200694#7 -272200694#7 -272200694#6 -272200694#5 -272200694#4 -272200694#3 -272200694#2 -272200694#1 92071655#1 92071655#2 -232496362#1 272200697#1 272200697#2 272200697#3 418251597 23506825 92071741#0" />
    </vehicle>
    <vehicle depart="39.00" departLane="best" id="82" type="passenger">
        <route edges="-23582544#4 23582544#4 23582544#5 23582544#6 23582544#7 385202258#0 385202258#1 296980003#0 296980003#1 296980003#2 184383639#0 184383639#1 184383639#2 401954570 330465830#0 330465830#1 184383636#0 184383636#1 -385202255#10 -385202255#9 385202255#9" />
    </vehicle>
    <vehicle depart="39.60" departLane="best" id="83" type="passenger">
        <route edges="-88867314#2 -88867310#2 -88867310#1 -88867310#0 -401959567#1 -401959567#0 -403863073 184383636#1 386281940#0 386281940#1 257245119#0 -35164004#4 -46142799#3" />
    </vehicle>
    <vehicle depart="39.80" departLane="best" id="84" type="passenger">
        <route edges="25568481#0 25568481#1 25568481#2 25568481#3 383026340#2 383026340#3 296980004#5 35164004#0 35164004#1 35164004#2 35164004#3" />
    </vehicle>
    <vehicle depart="40.00" departLane="best" id="85" type="passenger">
        <route edges="-23582546#8 -272200694#8 -272200694#7 -272200694#6 -272200694#5 -272200694#4 -272200694#3 -272200694#2 -272200694#1 92071655#1 92071655#2 -232496362#1 272200697#1 272200697#2 272200697#3 418251597 23683304#0 23683304#1 23683304#2 23683304#3 330465829#0 -88867310#4 -88867310#3" />
    </vehicle>
    <vehicle depart="40.40" departLane="best" id="86" type="passenger">
        <route edges="-184383552 184383586 255537694 184383588#0 184383588#1 184383588#2 184383588#3 -418972770 -386281939#4 -386281939#3 -386281939#2 35164004#3" />
    </vehicle>
    <vehicle depart="41.20" departLane="best" id="87" type="passenger">
        <route edges="-296213172#1 -254607164#2 -254607164#1 -254607164#0 254607168 296980003#0 296980003#1 296980003#2 184383639#0 184383639#1 184383639#2 401954570 330465830#0 330465830#1 184383636#0 184383636#1 -385202255#10 -385202255#9 -385202255#8 -385202255#7 -385202255#6 -385202255#5 -385202255#4" />
    </vehicle>
    <vehicle depart="41.60" departLane="best" id="88" type="passenger">
        <route edges="255537686#3 255537686#4 255537686#5 330465827#0 330465827#1 330465827#2 330465827#3 23506825 25192832 -272200697#3 -520932346#0 380327966#0 380327966#1" />
    </vehicle>
    <vehicle depart="42.00" departLane="best" id="89" type="passenger">
        <route edges="92071606#3 92071606#4 23683304#1 23683304#2 23683304#3 330465828#0 330465828#1 330465828#2 330465828#3 330465828#4 330465828#5 330465828#6 330465828#7 330465828#8 296980007#0 296980007#1 184383636#0 184383636#1 385202256#0 385202256#1" />
    </vehicle>
    <vehicle depart="42.60" departLane="best" id="90" type="passenger">
        <route edges="330465830#1 -296980007#1 -296980007#0 401959564#0 -92041171" />
    </vehicle>
    <vehicle depart="43.00" departLane="best" id="91" type="passenger">
        <route edges="380327966#0 380327966#1 380327966#2 93331250#1 -232496368#9 -232496368#8 -94059895#4 -94059895#3 -94059895#2" />
    </vehicle>
    <vehicle depart="43.40" departLane="best" id="92" type="passenger">
        <route edges="257245112#2 257245112#3 257245112#4 257245112#5 257245112#6 257245112#7 92071741#0 92071741#1 92071741#2 92071741#3" />
    </vehicle>
    <vehicle depart="44.20" departLane="best" id="93" type="passenger">
        <route edges="385202255#7 385202255#8 385202255#9 385202255#10 -184383636#1 -184383636#0 -330465830#1 -330465830#0 -401954570 -184383639#2 -184383639#1 -184383639#0 -296980003#2 -296980003#1 -296980003#0 -385202258#1 -385202258#0 -23582544#7 -23582544#6 -23582544#5 23582544#5" />
    </vehicle>
    <vehicle depart="45.00" departLane="best" id="94" type="passenger">
        <route edges="-296980003#2 -296980003#1 -296980003#0 -385202258#1 -385202258#0 -23582544#7 -23582544#6 -23582544#5 -23582544#4 -23582544#3 -23582544#2 -23582544#1 -23582544#0 254607165#1" />
    </vehicle>
    <vehicle depart="45.40" departLane="best" id="95" type="passenger">
        <route edges="257245112#0 385202255#0 385202255#1 385202255#2 385202255#3 385202255#4 385202255#5 385202255#6 385202255#7 385202255#8 385202255#9 385202255#10 -184383636#1 -184383636#0 -330465830#1 88867313#0 88867313#1 -280728219#0" />
    </vehicle>
    <vehicle depart="46.20" departLane="best" id="96" type="passenger">
        <route edges="25823393#0 25823393#1 25823393#2 25823393#3 184383558#0 184383558#1 184383558#2 184383558#3 184383558#4 -296213172#2" />
    </vehicle>
    <vehicle depart="46.60" departLane="best" id="97" type="passenger">
        <route edges="296980004#4 296980004#5 255537686#4 255537686#5 330465830#0 330465830#1 184383636#0 184383636#1 385202256#0 -385202256#0" />
    </vehicle>
    <vehicle depart="47.40" departLane="best" id="98" type="passenger">
        <route edges="-401959564#4 -401959564#3 385202255#10 385202256#0 385202256#1 386281939#0 386281939#1 386281939#2 386281939#3 386281939#4 418972774#0 -184383576#6" />
    </vehicle>
    <vehicle depart="47.80" departLane="best" id="99" type="passenger">
        <route edges="-254607164#1 254607164#1 254607164#2 296980001#0 296980001#1 296980001#2 296980001#3 296980001#4 254607165#0 254607165#1 184383586 255537687#0" />
    </vehicle>
    <vehicle depart="48.20" departLane="best" id="100" type="passenger">