<additional>
    <tlLogic id="1140217848" offset="0" programID="1" type="static">
        <phase duration="20" state="GGrrr" />
        <phase duration="5" state="yyrrr" />
        <phase duration="28" state="rrGGG" />
        <phase duration="5" state="rryyy" />
    </tlLogic>
    <tlLogic id="1140217849" offset="0" programID="1" type="static">
        <phase duration="47" state="GGGrr" />
        <phase duration="5" state="yyyrr" />
        <phase duration="52" state="rrrGG" />
        <phase duration="5" state="rrryy" />
    </tlLogic>
    <tlLogic id="1140220198" offset="0" programID="1" type="static">
        <phase duration="53" state="rrrGGGGggggrrr" />
        <phase duration="5" state="rrryyyyggggrrr" />
        <phase duration="28" state="rrrrrrrGGGGrrr" />
        <phase duration="5" state="rrrrrrryyyyrrr" />
        <phase duration="51" state="GGgrrrrrrrrGgg" />
        <phase duration="5" state="yygrrrrrrrrygg" />
        <phase duration="28" state="rrGrrrrrrrrrGG" />
        <phase duration="5" state="rryrrrrrrrrryy" />
    </tlLogic>
    <tlLogic id="1140220472" offset="0" programID="1" type="static">
        <phase duration="37" state="GGG" />
        <phase duration="5" state="yyy" />
    </tlLogic>
    <tlLogic id="1140226515" offset="0" programID="1" type="static">
        <phase duration="40" state="GGrrr" />
        <phase duration="5" state="yyrrr" />
        <phase duration="11" state="rrGGG" />
        <phase duration="5" state="rryyy" />
    </tlLogic>
    <tlLogic id="1140226550" offset="0" programID="1" type="static">
        <phase duration="22" state="GGrr" />
        <phase duration="5" state="yyrr" />
        <phase duration="51" state="rrGG" />
        <phase duration="5" state="rryy" />
    </tlLogic>
    <tlLogic id="1140228862" offset="0" programID="1" type="static">
        <phase duration="13" state="GGrr" />
        <phase duration="5" state="yyrr" />
        <phase duration="57" state="rrGG" />
        <phase duration="5" state="rryy" />
    </tlLogic>
    <tlLogic id="1140228864" offset="0" programID="1" type="static">
        <phase duration="25" state="GGGrr" />
        <phase duration="5" state="yyyrr" />
        <phase duration="7" state="rrrGG" />
        <phase duration="5" state="rrryy" />
    </tlLogic>
    <tlLogic id="1215000559" offset="0" programID="1" type="static">
        <phase duration="30" state="GGGrrr" />
        <phase duration="5" state="yyyrrr" />
        <phase duration="16" state="rrrGGG" />
        <phase duration="5" state="rrryyy" />
    </tlLogic>
    <tlLogic id="1215000566" offset="0" programID="1" type="static">
        <phase duration="9" state="GGGrrr" />
        <phase duration="5" state="yyyrrr" />
        <phase duration="16" state="rrrGGG" />
        <phase duration="5" state="rrryyy" />
    </tlLogic>
    <tlLogic id="1215000568" offset="0" programID="1" type="static">
        <phase duration="49" state="GGG" />
        <phase duration="5" state="yyy" />
    </tlLogic>
    <tlLogic id="1215000576" offset="0" programID="1" type="static">
        <phase duration="13" state="GGGrrr" />
        <phase duration="5" state="yyyrrr" />
        <phase duration="55" state="rrrGGG" />
        <phase duration="5" state="rrryyy" />
    </tlLogic>
    <tlLogic id="1215000588" offset="0" programID="1" type="static">
        <phase duration="30" state="GGGrrr" />
        <phase duration="5" state="yyyrrr" />
        <phase duration="39" state="rrrGGG" />
        <phase duration="5" state="rrryyy" />
    </tlLogic>
    <tlLogic id="1215000597" offset="0" programID="1" type="static">
        <phase duration="18" state="GGrrr" />
        <phase duration="5" state="yyrrr" />
        <phase duration="13" state="rrGGG" />
        <phase duration="5" state="rryyy" />
    </tlLogic>
    <tlLogic id="1215000638" offset="0" programID="1" type="static">
        <phase duration="33" state="GGGrr" />
        <phase duration="5" state="yyyrr" />
        <phase duration="15" state="rrrGG" />
        <phase duration="5" state="rrryy" />
    </tlLogic>
    <tlLogic id="1215000640" offset="0" programID="1" type="static">
        <phase duration="14" state="GGGrr" />
        <phase duration="5" state="yyyrr" />
        <phase duration="51" state="rrrGG" />
        <phase duration="5" state="rrryy" />
    </tlLogic>
    <tlLogic id="1215000642" offset="0" programID="1" type="static">
        <phase duration="15" state="GGGGrrr" />
        <phase duration="5" state="yyyyrrr" />
        <phase duration="8" state="GGrrGGG" />
        <phase duration="5" state="yyrryyy" />
    </tlLogic>
    <tlLogic id="1215000651" offset="0" programID="1" type="static">
        <phase duration="32" state="GGGrrr" />
        <phase duration="5" state="yyyrrr" />
        <phase duration="15" state="rrrGGG" />
        <phase duration="5" state="rrryyy" />
    </tlLogic>
    <tlLogic id="1218554095" offset="0" programID="1" type="static">
        <phase duration="24" state="G" />
        <phase duration="5" state="y" />
    </tlLogic>
    <tlLogic id="1223756314" offset="0" programID="1" type="static">
        <phase duration="14" state="GGrr" />
        <phase duration="5" state="yyrr" />
        <phase duration="51" state="rrGG" />
        <phase duration="5" state="rryy" />
    </tlLogic>
    <tlLogic id="1223756641" offset="0" programID="1" type="static">
        <phase duration="25" state="rrrGggGGg" />
        <phase duration="5" state="rrryggyyg" />
        <phase duration="38" state="rrrrGGrrG" />
        <phase duration="5" state="rrrryyrry" />
        <phase duration="52" state="GGGrrrrrr" />
        <phase duration="5" state="yyyrrrrrr" />
    </tlLogic>
    <tlLogic id="1223756806" offset="0" programID="1" type="static">
        <phase duration="21" state="GGrrrr" />
        <phase duration="5" state="yyrrrr" />
        <phase duration="56" state="rrGGGG" />
        <phase duration="5" state="rryyyy" />
    </tlLogic>
    <tlLogic id="1223756843" offset="0" programID="1" type="static">
        <phase duration="30" state="G" />
        <phase duration="5" state="y" />
    </tlLogic>
    <tlLogic id="1223757286" offset="0" programID="1" type="static">
        <phase duration="18" state="GGrr" />
        <phase duration="5" state="yyrr" />
        <phase duration="54" state="rrGG" />
        <phase duration="5" state="rryy" />
    </tlLogic>
    <tlLogic id="1223757532" offset="0" programID="1" type="static">
        <phase duration="23" state="GGGGGrrr" />
        <phase duration="5" state="yyyyyrrr" />
        <phase duration="38" state="rrrrrGGG" />
        <phase duration="5" state="rrrrryyy" />
    </tlLogic>
    <tlLogic id="1273038210" offset="0" programID="1" type="static">
        <phase duration="7" state="GggrrrGGGg" />
        <phase duration="5" state="yggrrryyyg" />
        <phase duration="6" state="rGGrrrrrrG" />
        <phase duration="5" state="ryyrrrrrry" />
        <phase duration="20" state="rrrGGgGrrr" />
        <phase duration="5" state="rrryyyyrrr" />
    </tlLogic>
    <tlLogic id="1273038294" offset="0" programID="1" type="static">
        <phase duration="45" state="GgGgr" />
        <phase duration="5" state="yyyyr" />
        <phase duration="51" state="rgGrG" />
        <phase duration="5" state="ryyry" />
    </tlLogic>
    <tlLogic id="1273038325" offset="0" programID="1" type="static">
        <phase duration="14" state="GgGg" />
        <phase duration="5" state="yyyy" />
    </tlLogic>
    <tlLogic id="1273038362" offset="0" programID="1" type="static">
        <phase duration="42" state="G" />
        <phase duration="5" state="y" />
    </tlLogic>
    <tlLogic id="1273038458" offset="0" programID="1" type="static">
        <phase duration="37" state="G" />
        <phase duration="5" state="y" />
    </tlLogic>
    <tlLogic id="1273038579" offset="0" programID="1" type="static">
        <phase duration="58" state="GGgrrrrGgg" />
        <phase duration="5" state="yygrrrrygg" />
        <phase duration="13" state="rrGrrrrrGG" />
        <phase duration="5" state="rryrrrrryy" />
        <phase duration="15" state="rrrGGGGrrr" />
        <phase duration="5" state="rrryyyyrrr" />
    </tlLogic>
    <tlLogic id="1273038656" offset="0" programID="1" type="static">
        <phase duration="6" state="G" />
        <phase duration="5" state="y" />
    </tlLogic>
    <tlLogic id="1273038664" offset="0" programID="1" type="static">
        <phase duration="57" state="GGgGgg" />
        <phase duration="5" state="yygygg" />
        <phase duration="44" state="rrGrGG" />
        <phase duration="5" state="rryryy" />
    </tlLogic>
    <tlLogic id="1273038683" offset="0" programID="1" type="static">
        <phase duration="8" state="GgGg" />
        <phase duration="5" state="yyyy" />
    </tlLogic>
    <tlLogic id="1446745543" offset="0" programID="1" type="static">
        <phase duration="60" state="Gr" />
        <phase duration="5" state="yr" />
        <phase duration="36" state="rG" />
        <phase duration="5" state="ry" />
    </tlLogic>
    <tlLogic id="1446842497" offset="0" programID="1" type="static">
        <phase duration="39" state="rrrGggGGg" />
        <phase duration="5" state="rrryggyyg" />
        <phase duration="17" state="rrrrGGrrG" />
        <phase duration="5" state="rrrryyrry" />
        <phase duration="35" state="GGGrrrrrr" />
        <phase duration="5" state="yyyrrrrrr" />
    </tlLogic>
    <tlLogic id="1446842498" offset="0" programID="1" type="static">
        <phase duration="11" state="GG" />
        <phase duration="5" state="yy" />
    </tlLogic>
    <tlLogic id="1446842500" offset="0" programID="1" type="static">
        <phase duration="10" state="GGr" />
        <phase duration="5" state="yyr" />
        <phase duration="39" state="rrG" />
        <phase duration="5" state="rry" />
    </tlLogic>
    <tlLogic id="1446842514" offset="0" programID="1" type="static">
        <phase duration="48" state="GGGrrr" />
        <phase duration="5" state="yyyrrr" />
        <phase duration="54" state="rrrGGG" />
        <phase duration="5" state="rrryyy" />
    </tlLogic>
    <tlLogic id="1466455140" offset="0" programID="1" type="static">
        <phase duration="10" state="GGGrrr" />
        <phase duration="5" state="yyyrrr" />
        <phase duration="33" state="rrrGGG" />
        <phase duration="5" state="rrryyy" />
    </tlLogic>
    <tlLogic id="1466455146" offset="0" programID="1" type="static">
        <phase duration="56" state="GGgGGrr" />
        <phase duration="5" state="yyyyyrr" />
        <phase duration="31" state="rrrGGGG" />
        <phase duration="5" state="rrryyyy" />
    </tlLogic>
    <tlLogic id="1466455148" offset="0" programID="1" type="static">
        <phase duration="16" state="gggGGGG" />
        <phase duration="5" state="gggyyyy" />
        <phase duration="8" state="GGGrrrr" />
        <phase duration="5" state="yyyrrrr" />
    </tlLogic>
    <tlLogic id="1466455150" offset="0" programID="1" type="static">
        <phase duration="6" state="GGGG" />
        <phase duration="5" state="yyyy" />
    </tlLogic>
    <tlLogic id="1466455152" offset="0" programID="1" type="static">
        <phase duration="44" state="GGG" />
        <phase duration="5" state="yyy" />
    </tlLogic>
    <tlLogic id="1466455161" offset="0" programID="1" type="static">
        <phase duration="17" state="Grr" />
        <phase duration="5" state="yrr" />
        <phase duration="51" state="rGG" />
        <phase duration="5" state="ryy" />
    </tlLogic>
    <tlLogic id="1466455165" offset="0" programID="1" type="static">
        <phase duration="57" state="GGgGrr" />
        <phase duration="5" state="yyyyrr" />
        <phase duration="19" state="rrrGGG" />
        <phase duration="5" state="rrryyy" />
    </tlLogic>
    <tlLogic id="1466455170" offset="0" programID="1" type="static">
        <phase duration="28" state="Grr" />
        <phase duration="5" state="yrr" />
        <phase duration="16" state="rGG" />
        <phase duration="5" state="ryy" />
    </tlLogic>
    <tlLogic id="1466455177" offset="0" programID="1" type="static">
        <phase duration="18" state="GGGG" />
        <phase duration="5" state="yyyy" />
    </tlLogic>
    <tlLogic id="1466455178" offset="0" programID="1" type="static">
        <phase duration="52" state="GGrr" />
        <phase duration="5" state="yyrr" />
        <phase duration="46" state="rrGG" />
        <phase duration="5" state="rryy" />
    </tlLogic>
    <tlLogic id="1504062175" offset="0" programID="1" type="static">
        <phase duration="37" state="GgGg" />
        <phase duration="5" state="yyyy" />
    </tlLogic>
    <tlLogic id="1505012036" offset="0" programID="1" type="static">
        <phase duration="39" state="rrrGgGG" />
        <phase duration="5" state="rrrygyy" />
        <phase duration="33" state="rrrrGrr" />
        <phase duration="5" state="rrrryrr" />
        <phase duration="24" state="GGGrrrr" />
        <phase duration="5" state="yyyrrrr" />
    </tlLogic>
    <tlLogic id="1505012037" offset="0" programID="1" type="static">
        <phase duration="34" state="GGGG" />
        <phase duration="5" state="yyyy" />
    </tlLogic>
    <tlLogic id="1505012053" offset="0" programID="1" type="static">
        <phase duration="43" state="rrGgGG" />
        <phase duration="5" state="rrygyy" />
        <phase duration="20" state="rrrGrr" />
        <phase duration="5" state="rrryrr" />
        <phase duration="20" state="GGrrrr" />
        <phase duration="5" state="yyrrrr" />
    </tlLogic>
    <tlLogic id="1505012056" offset="0" programID="1" type="static">
        <phase duration="19" state="GGr" />
        <phase duration="5" state="yyr" />
        <phase duration="7" state="rrG" />
        <phase duration="5" state="rry" />
    </tlLogic>
    <tlLogic id="1505012059" offset="0" programID="1" type="static">
        <phase duration="40" state="rrrGgGGg" />
        <phase duration="5" state="rrrygyyg" />
        <phase duration="30" state="rrrrGrrG" />
        <phase duration="5" state="rrrryrry" />
        <phase duration="14" state="GGGrrrrr" />
        <phase duration="5" state="yyyrrrrr" />
    </tlLogic>
    <tlLogic id="1505012062" offset="0" programID="1" type="static">
        <phase duration="18" state="GGgrrrGg" />
        <phase duration="5" state="yygrrryg" />
        <phase duration="39" state="rrGrrrrG" />
        <phase duration="5" state="rryrrrry" />
        <phase duration="10" state="rrrGGGrr" />
        <phase duration="5" state="rrryyyrr" />
    </tlLogic>
    <tlLogic id="1505012111" offset="0" programID="1" type="static">
        <phase duration="52" state="rrGgGG" />
        <phase duration="5" state="rrygyy" />
        <phase duration="56" state="rrrGrr" />
        <phase duration="5" state="rrryrr" />
        <phase duration="34" state="GGrrrr" />
        <phase duration="5" state="yyrrrr" />
    </tlLogic>
    <tlLogic id="1505012119" offset="0" programID="1" type="static">
        <phase duration="51" state="GGgrrrGg" />
        <phase duration="5" state="yygrrryg" />
        <phase duration="31" state="rrGrrrrG" />
        <phase duration="5" state="rryrrrry" />
        <phase duration="23" state="rrrGGGrr" />
        <phase duration="5" state="rrryyyrr" />
    </tlLogic>
    <tlLogic id="1505012123" offset="0" programID="1" type="static">
        <phase duration="18" state="GGrrrGg" />
        <phase duration="5" state="yyrrryg" />
        <phase duration="34" state="rrrrrrG" />
        <phase duration="5" state="rrrrrry" />
        <phase duration="49" state="rrGGGrr" />
        <phase duration="5" state="rryyyrr" />
    </tlLogic>
    <tlLogic id="1505012127" offset="0" programID="1" type="static">
        <phase duration="36" state="GGrr" />
        <phase duration="5" state="yyrr" />
        <phase duration="57" state="rrGG" />
        <phase duration="5" state="rryy" />
    </tlLogic>
    <tlLogic id="1535585606" offset="0" programID="1" type="static">
        <phase duration="43" state="GgGg" />
        <phase duration="5" state="yyyy" />
    </tlLogic>
    <tlLogic id="1672906043" offset="0" programID="1" type="static">
        <phase duration="26" state="GGgGGg" />
        <phase duration="5" state="yyyyyy" />
    </tlLogic>
    <tlLogic id="1672906059" offset="0" programID="1" type="static">
        <phase duration="18" state="GgGg" />
        <phase duration="5" state="yyyy" />
    </tlLogic>
    <tlLogic id="1720485436" offset="0" programID="1" type="static">
        <phase duration="39" state="rrrrGGggrrrrGGgg" />
        <phase duration="5" state="rrrryyggrrrryygg" />
        <phase duration="15" state="rrrrrrGGrrrrrrGG" />
        <phase duration="5" state="rrrrrryyrrrrrryy" />
        <phase duration="33" state="GGggrrrrGGggrrrr" />
        <phase duration="5" state="yyggrrrryyggrrrr" />
        <phase duration="40" state="rrGGrrrrrrGGrrrr" />
        <phase duration="5" state="rryyrrrrrryyrrrr" />
    </tlLogic>
    <tlLogic id="1720485444" offset="0" programID="1" type="static">
        <phase duration="58" state="GGgrrrGgg" />
        <phase duration="5" state="yygrrrygg" />
        <phase duration="35" state="rrGrrrrGG" />
        <phase duration="5" state="rryrrrryy" />
        <phase duration="19" state="rrrGGGrrr" />
        <phase duration="5" state="rrryyyrrr" />
    </tlLogic>
    <tlLogic id="1720485456" offset="0" programID="1" type="static">
        <phase duration="53" state="GGggrrrrGGggrrrr" />
        <phase duration="5" state="yyggrrrryyggrrrr" />
        <phase duration="51" state="rrGGrrrrrrGGrrrr" />
        <phase duration="5" state="rryyrrrrrryyrrrr" />
        <phase duration="14" state="rrrrGGggrrrrGGgg" />
        <phase duration="5" state="rrrryyggrrrryygg" />
        <phase duration="7" state="rrrrrrGGrrrrrrGG" />
        <phase duration="5" state="rrrrrryyrrrrrryy" />
    </tlLogic>
    <tlLogic id="1720485460" offset="0" programID="1" type="static">
        <phase duration="29" state="GGggrrrrGGggrrrr" />
        <phase duration="5" state="yyggrrrryyggrrrr" />
        <phase duration="44" state="rrGGrrrrrrGGrrrr" />
        <phase duration="5" state="rryyrrrrrryyrrrr" />
        <phase duration="17" state="rrrrGGggrrrrGGgg" />
        <phase duration="5" state="rrrryyggrrrryygg" />
        <phase duration="48" state="rrrrrrGGrrrrrrGG" />
        <phase duration="5" state="rrrrrryyrrrrrryy" />
    </tlLogic>
    <tlLogic id="1722528717" offset="0" programID="1" type="static">
        <phase duration="40" state="GGgrrGg" />
        <phase duration="5" state="yyyrryy" />
        <phase duration="51" state="rrrGGrG" />
        <phase duration="5" state="rrryyry" />
    </tlLogic>
    <tlLogic id="1722528719" offset="0" programID="1" type="static">
        <phase duration="23" state="GgGGgrrr" />
        <phase duration="5" state="yyyyyrrr" />
        <phase duration="26" state="rGrrrGGG" />
        <phase duration="5" state="ryrrryyy" />
    </tlLogic>
    <tlLogic id="1722528725" offset="0" programID="1" type="static">
        <phase duration="9" state="GGrrr" />
        <phase duration="5" state="yyrrr" />
        <phase duration="33" state="rrGGG" />
        <phase duration="5" state="rryyy" />
    </tlLogic>
    <tlLogic id="1723342772" offset="0" programID="1" type="static">
        <phase duration="44" state="GGrr" />
        <phase duration="5" state="yyrr" />
        <phase duration="29" state="rrGG" />
        <phase duration="5" state="rryy" />
    </tlLogic>
    <tlLogic id="1723342782" offset="0" programID="1" type="static">
        <phase duration="12" state="GgrrGGg" />
        <phase duration="5" state="yyrryyy" />
        <phase duration="14" state="rrGGrrr" />
        <phase duration="5" state="rryyrrr" />
    </tlLogic>
    <tlLogic id="1723342784" offset="0" programID="1" type="static">
        <phase duration="30" state="GGggGGGgg" />
        <phase duration="5" state="yyggyyygg" />
        <phase duration="36" state="rrGGrrrGG" />
        <phase duration="5" state="rryyrrryy" />
    </tlLogic>
    <tlLogic id="1723590047" offset="0" programID="1" type="static">
        <phase duration="30" state="rrrrGggGGg" />
        <phase duration="5" state="rrrryggyyg" />
        <phase duration="27" state="rrrrrGGrrG" />
        <phase duration="5" state="rrrrryyrry" />
        <phase duration="53" state="GGGGrrrrrr" />
        <phase duration="5" state="yyyyrrrrrr" />
    </tlLogic>
    <tlLogic id="1926948285" offset="0" programID="1" type="static">
        <phase duration="36" state="rrGgGg" />
        <phase duration="5" state="rryyyy" />
        <phase duration="48" state="GGrrrr" />
        <phase duration="5" state="yyrrrr" />
    </tlLogic>
    <tlLogic id="1995669563" offset="0" programID="1" type="static">
        <phase duration="32" state="GGGrr" />
        <phase duration="5" state="yyyrr" />
        <phase duration="41" state="rrrGG" />
        <phase duration="5" state="rrryy" />
    </tlLogic>
    <tlLogic id="2002014271" offset="0" programID="1" type="static">
        <phase duration="22" state="rrrrGGggrrrrGGgg" />
        <phase duration="5" state="rrrryyggrrrryygg" />
        <phase duration="6" state="rrrrrrGGrrrrrrGG" />
        <phase duration="5" state="rrrrrryyrrrrrryy" />
        <phase duration="51" state="GGggrrrrGGggrrrr" />
        <phase duration="5" state="yyggrrrryyggrrrr" />
        <phase duration="48" state="rrGGrrrrrrGGrrrr" />
        <phase duration="5" state="rryyrrrrrryyrrrr" />
    </tlLogic>
    <tlLogic id="2002014273" offset="0" programID="1" type="static">
        <phase duration="26" state="GG" />
        <phase duration="5" state="yy" />
    </tlLogic>
    <tlLogic id="2002014274" offset="0" programID="1" type="static">
        <phase duration="35" state="rrrrrrGGgGgg" />
        <phase duration="5" state="rrrrrryygygg" />
        <phase duration="58" state="rrrrrrrrGrGG" />
        <phase duration="5" state="rrrrrrrryryy" />
        <phase duration="14" state="GGGgggrrrrrr" />
        <phase duration="5" state="yyygggrrrrrr" />
        <phase duration="13" state="rrrGGGrrrrrr" />
        <phase duration="5" state="rrryyyrrrrrr" />
    </tlLogic>
    <tlLogic id="2031882172" offset="0" programID="1" type="static">
        <phase duration="33" state="GggrrrGGg" />
        <phase duration="5" state="yggrrryyg" />
        <phase duration="7" state="rGGrrrrrG" />
        <phase duration="5" state="ryyrrrrry" />
        <phase duration="46" state="rrrGGgGrr" />
        <phase duration="5" state="rrryyyyrr" />
    </tlLogic>
    <tlLogic id="2043097290" offset="0" programID="1" type="static">
        <phase duration="35" state="GGGgGGggrrrrr" />
        <phase duration="5" state="yyygyyggrrrrr" />
        <phase duration="57" state="rrrGrrGGrrrrr" />
        <phase duration="5" state="rrryrryyrrrrr" />
        <phase duration="30" state="GrrrrrrrGGGGg" />
        <phase duration="5" state="yrrrrrrryyyyy" />
    </tlLogic>
    <tlLogic id="2043097295" offset="0" programID="1" type="static">
        <phase duration="32" state="GGGgrrrrGGGgg" />
        <phase duration="5" state="yyygrrrryyygg" />
        <phase duration="48" state="rrrGrrrrrrrGG" />
        <phase duration="5" state="rrryrrrrrrryy" />
        <phase duration="30" state="GrrrGGGGrrrrr" />
        <phase duration="5" state="yrrryyyyrrrrr" />
    </tlLogic>
    <tlLogic id="2043097297" offset="0" programID="1" type="static">
        <phase duration="53" state="rrrrGGggGGGGg" />
        <phase duration="5" state="rrrryyggyyyyg" />
        <phase duration="45" state="rrrrrrGGrrrrG" />
        <phase duration="5" state="rrrrrryyrrrry" />
        <phase duration="39" state="GGGGrrrrrrrrr" />
        <phase duration="5" state="yyyyrrrrrrrrr" />
    </tlLogic>
    <tlLogic id="2046348191" offset="0" programID="1" type="static">
        <phase duration="32" state="rrrrGggGGg" />
        <phase duration="5" state="rrrryggyyg" />
        <phase duration="19" state="rrrrrGGrrG" />
        <phase duration="5" state="rrrrryyrry" />
        <phase duration="7" state="GGGGrrrrrr" />
        <phase duration="5" state="yyyyrrrrrr" />
    </tlLogic>
    <tlLogic id="2050931381" offset="0" programID="1" type="static">
        <phase duration="24" state="GGgrrrrGgg" />
        <phase duration="5" state="yygrrrrygg" />
        <phase duration="35" state="rrGrrrrrGG" />
        <phase duration="5" state="rryrrrrryy" />
        <phase duration="49" state="rrrGGGGrrr" />
        <phase duration="5" state="rrryyyyrrr" />
    </tlLogic>
    <tlLogic id="2050931507" offset="0" programID="1" type="static">
        <phase duration="18" state="GGGrr" />
        <phase duration="5" state="yyyrr" />
        <phase duration="7" state="rrrGG" />
        <phase duration="5" state="rrryy" />
    </tlLogic>
    <tlLogic id="2051219340" offset="0" programID="1" type="static">
        <phase duration="26" state="GGggrrrGGGgrrr" />
        <phase duration="5" state="yyggrrryyygrrr" />
        <phase duration="58" state="rrGGrrrrrrGrrr" />
        <phase duration="5" state="rryyrrrrrryrrr" />
        <phase duration="56" state="rrrrGggrrrrGGg" />
        <phase duration="5" state="rrrryggrrrryyg" />
        <phase duration="15" state="rrrrrGGrrrrrrG" />
        <phase duration="5" state="rrrrryyrrrrrry" />
    </tlLogic>
    <tlLogic id="2063107746" offset="0" programID="1" type="static">
        <phase duration="21" state="GGrr" />
        <phase duration="5" state="yyrr" />
        <phase duration="50" state="rrGG" />
        <phase duration="5" state="rryy" />
    </tlLogic>
    <tlLogic id="2063107749" offset="0" programID="1" type="static">
        <phase duration="6" state="GGGGrrrr" />
        <phase duration="5" state="yyyyrrrr" />
        <phase duration="27" state="rrrrGGGG" />
        <phase duration="5" state="rrrryyyy" />
    </tlLogic>
    <tlLogic id="2063258447" offset="0" programID="1" type="static">
        <phase duration="43" state="GGGr" />
        <phase duration="5" state="yyyr" />
        <phase duration="45" state="rrrG" />
        <phase duration="5" state="rrry" />
    </tlLogic>
    <tlLogic id="2088253314" offset="0" programID="1" type="static">
        <phase duration="20" state="GGGgggGGGGgrrrrrrr" />
        <phase duration="5" state="yyygggyyyygrrrrrrr" />
        <phase duration="23" state="rrrGGGrrrrGrrrrrrr" />
        <phase duration="5" state="rrryyyrrrryrrrrrrr" />
        <phase duration="46" state="rrrrrrrrrrrGGGGGGG" />
        <phase duration="5" state="rrrrrrrrrrryyyyyyy" />
    </tlLogic>
    <tlLogic id="2092565993" offset="0" programID="1" type="static">
        <phase duration="43" state="GG" />
        <phase duration="5" state="yy" />
    </tlLogic>
    <tlLogic id="2112376963" offset="0" programID="1" type="static">
        <phase duration="27" state="GggGGgrrr" />
        <phase duration="5" state="yggyygrrr" />
        <phase duration="27" state="rGGrrGrrr" />
        <phase duration="5" state="ryyrryrrr" />
        <phase duration="57" state="rrrrrrGGG" />
        <phase duration="5" state="rrrrrryyy" />
    </tlLogic>
    <tlLogic id="2112377011" offset="0" programID="1" type="static">
        <phase duration="59" state="GGggrrrrGGggrrrr" />
        <phase duration="5" state="yyggrrrryyggrrrr" />
        <phase duration="29" state="rrGGrrrrrrGGrrrr" />
        <phase duration="5" state="rryyrrrrrryyrrrr" />
        <phase duration="59" state="rrrrGGggrrrrGGgg" />
        <phase duration="5" state="rrrryyggrrrryygg" />
        <phase duration="26" state="rrrrrrGGrrrrrrGG" />
        <phase duration="5" state="rrrrrryyrrrrrryy" />
    </tlLogic>
    <tlLogic id="2132268507" offset="0" programID="1" type="static">
        <phase duration="12" state="GgGg" />
        <phase duration="5" state="yyyy" />
    </tlLogic>
    <tlLogic id="2132268511" offset="0" programID="1" type="static">
        <phase duration="47" state="G" />
        <phase duration="5" state="y" />
    </tlLogic>
    <tlLogic id="2132268524" offset="0" programID="1" type="static">
        <phase duration="58" state="GgGg" />
        <phase duration="5" state="yyyy" />
    </tlLogic>
    <tlLogic id="2137955730" offset="0" programID="1" type="static">
        <phase duration="12" state="GGrr" />
        <phase duration="5" state="yyrr" />
        <phase duration="22" state="rrGG" />
        <phase duration="5" state="rryy" />
    </tlLogic>
    <tlLogic id="2142307087" offset="0" programID="1" type="static">
        <phase duration="12" state="GGgrrrGgg" />
        <phase duration="5" state="yygrrrygg" />
        <phase duration="40" state="rrGrrrrGG" />
        <phase duration="5" state="rryrrrryy" />
        <phase duration="56" state="rrrGGGrrr" />
        <phase duration="5" state="rrryyyrrr" />
    </tlLogic>
    <tlLogic id="2142307088" offset="0" programID="1" type="static">
        <phase duration="28" state="GggGGgrrr" />
        <phase duration="5" state="yggyygrrr" />
        <phase duration="48" state="rGGrrGrrr" />
        <phase duration="5" state="ryyrryrrr" />
        <phase duration="33" state="rrrrrrGGG" />
        <phase duration="5" state="rrrrrryyy" />
    </tlLogic>
    <tlLogic id="2178660154" offset="0" programID="1" type="static">
        <phase duration="43" state="rrGgGg" />
        <phase duration="5" state="rryyyy" />
        <phase duration="23" state="GGrrrr" />
        <phase duration="5" state="yyrrrr" />
    </tlLogic>
    <tlLogic id="2178660155" offset="0" programID="1" type="static">
        <phase duration="9" state="GGG" />
        <phase duration="5" state="yyy" />
    </tlLogic>
    <tlLogic id="2323973424" offset="0" programID="1" type="static">
        <phase duration="55" state="GGGrr" />
        <phase duration="5" state="yyyrr" />
        <phase duration="57" state="rrrGG" />
        <phase duration="5" state="rrryy" />
    </tlLogic>