<additional>
    <tlLogic id="1140217848" type="static" programID="1" offset="0">
        <phase duration="36" state="GGrrr"/>
        <phase duration="9" state="yyrrr"/>
        <phase duration="36" state="rrGGG"/>
        <phase duration="9" state="rryyy"/>
    </tlLogic>
    <tlLogic id="1140217849" type="static" programID="1" offset="0">
        <phase duration="36" state="GGGrr"/>
        <phase duration="9" state="yyyrr"/>
        <phase duration="36" state="rrrGG"/>
        <phase duration="9" state="rrryy"/>
    </tlLogic>
    <tlLogic id="1140220198" type="static" programID="1" offset="0">
        <phase duration="21" state="rrrGGGGggggrrr"/>
        <phase duration="9" state="rrryyyyggggrrr"/>
        <phase duration="6" state="rrrrrrrGGGGrrr"/>
        <phase duration="9" state="rrrrrrryyyyrrr"/>
        <phase duration="21" state="GGgrrrrrrrrGgg"/>
        <phase duration="9" state="yygrrrrrrrrygg"/>
        <phase duration="6" state="rrGrrrrrrrrrGG"/>
        <phase duration="9" state="rryrrrrrrrrryy"/>
    </tlLogic>
    <tlLogic id="1140220472" type="static" programID="1" offset="0">
        <phase duration="81" state="GGG"/>
        <phase duration="9" state="yyy"/>
    </tlLogic>
    <tlLogic id="1140226515" type="static" programID="1" offset="0">
        <phase duration="36" state="GGrrr"/>
        <phase duration="9" state="yyrrr"/>
        <phase duration="36" state="rrGGG"/>
        <phase duration="9" state="rryyy"/>
    </tlLogic>
    <tlLogic id="1140226550" type="static" programID="1" offset="0">
        <phase duration="36" state="GGrr"/>
        <phase duration="9" state="yyrr"/>
        <phase duration="36" state="rrGG"/>
        <phase duration="9" state="rryy"/>
    </tlLogic>
    <tlLogic id="1140228862" type="static" programID="1" offset="0">
        <phase duration="36" state="GGrr"/>
        <phase duration="9" state="yyrr"/>
        <phase duration="36" state="rrGG"/>
        <phase duration="9" state="rryy"/>
    </tlLogic>
    <tlLogic id="1140228864" type="static" programID="1" offset="0">
        <phase duration="36" state="GGGrr"/>
        <phase duration="9" state="yyyrr"/>
        <phase duration="36" state="rrrGG"/>
        <phase duration="9" state="rrryy"/>
    </tlLogic>
    <tlLogic id="1215000559" type="static" programID="1" offset="0">
        <phase duration="36" state="GGGrrr"/>
        <phase duration="9" state="yyyrrr"/>
        <phase duration="36" state="rrrGGG"/>
        <phase duration="9" state="rrryyy"/>
    </tlLogic>
    <tlLogic id="1215000566" type="static" programID="1" offset="0">
        <phase duration="36" state="GGGrrr"/>
        <phase duration="9" state="yyyrrr"/>
        <phase duration="36" state="rrrGGG"/>
        <phase duration="9" state="rrryyy"/>
    </tlLogic>
    <tlLogic id="1215000568" type="static" programID="1" offset="0">
        <phase duration="81" state="GGG"/>
        <phase duration="9" state="yyy"/>
    </tlLogic>
    <tlLogic id="1215000576" type="static" programID="1" offset="0">
        <phase duration="36" state="GGGrrr"/>
        <phase duration="9" state="yyyrrr"/>
        <phase duration="36" state="rrrGGG"/>
        <phase duration="9" state="rrryyy"/>
    </tlLogic>
    <tlLogic id="1215000588" type="static" programID="1" offset="0">
        <phase duration="36" state="GGGrrr"/>
        <phase duration="9" state="yyyrrr"/>
        <phase duration="36" state="rrrGGG"/>
        <phase duration="9" state="rrryyy"/>
    </tlLogic>
    <tlLogic id="1215000597" type="static" programID="1" offset="0">
        <phase duration="36" state="GGrrr"/>
        <phase duration="9" state="yyrrr"/>
        <phase duration="36" state="rrGGG"/>
        <phase duration="9" state="rryyy"/>
    </tlLogic>
    <tlLogic id="1215000638" type="static" programID="1" offset="0">
        <phase duration="36" state="GGGrr"/>
        <phase duration="9" state="yyyrr"/>
        <phase duration="36" state="rrrGG"/>
        <phase duration="9" state="rrryy"/>
    </tlLogic>
    <tlLogic id="1215000640" type="static" programID="1" offset="0">
        <phase duration="36" state="GGGrr"/>
        <phase duration="9" state="yyyrr"/>
        <phase duration="36" state="rrrGG"/>
        <phase duration="9" state="rrryy"/>
    </tlLogic>
    <tlLogic id="1215000642" type="static" programID="1" offset="0">
        <phase duration="36" state="GGGGrrr"/>
        <phase duration="9" state="yyyyrrr"/>
        <phase duration="36" state="GGrrGGG"/>
        <phase duration="9" state="yyrryyy"/>
    </tlLogic>
    <tlLogic id="1215000651" type="static" programID="1" offset="0">
        <phase duration="36" state="GGGrrr"/>
        <phase duration="9" state="yyyrrr"/>
        <phase duration="36" state="rrrGGG"/>
        <phase duration="9" state="rrryyy"/>
    </tlLogic>
    <tlLogic id="1218554095" type="static" programID="1" offset="0">
        <phase duration="86" state="G"/>
        <phase duration="4" state="y"/>
    </tlLogic>
    <tlLogic id="1223756314" type="static" programID="1" offset="0">
        <phase duration="41" state="GGrr"/>
        <phase duration="4" state="yyrr"/>
        <phase duration="41" state="rrGG"/>
        <phase duration="4" state="rryy"/>
    </tlLogic>
    <tlLogic id="1223756641" type="static" programID="1" offset="0">
        <phase duration="36" state="rrrGggGGg"/>
        <phase duration="4" state="rrryggyyg"/>
        <phase duration="6" state="rrrrGGrrG"/>
        <phase duration="4" state="rrrryyrry"/>
        <phase duration="36" state="GGGrrrrrr"/>
        <phase duration="4" state="yyyrrrrrr"/>
    </tlLogic>
    <tlLogic id="1223756806" type="static" programID="1" offset="0">
        <phase duration="38" state="GGrrrr"/>
        <phase duration="7" state="yyrrrr"/>
        <phase duration="38" state="rrGGGG"/>
        <phase duration="7" state="rryyyy"/>
    </tlLogic>
    <tlLogic id="1223756843" type="static" programID="1" offset="0">
        <phase duration="86" state="G"/>
        <phase duration="4" state="y"/>
    </tlLogic>
    <tlLogic id="1223757286" type="static" programID="1" offset="0">
        <phase duration="41" state="GGrr"/>
        <phase duration="4" state="yyrr"/>
        <phase duration="41" state="rrGG"/>
        <phase duration="4" state="rryy"/>
    </tlLogic>
    <tlLogic id="1223757532" type="static" programID="1" offset="0">
        <phase duration="36" state="GGGGGrrr"/>
        <phase duration="9" state="yyyyyrrr"/>
        <phase duration="36" state="rrrrrGGG"/>
        <phase duration="9" state="rrrrryyy"/>
    </tlLogic>
    <tlLogic id="1273038210" type="static" programID="1" offset="0">
        <phase duration="32" state="GggrrrGGGg"/>
        <phase duration="7" state="yggrrryyyg"/>
        <phase duration="6" state="rGGrrrrrrG"/>
        <phase duration="7" state="ryyrrrrrry"/>
        <phase duration="31" state="rrrGGgGrrr"/>
        <phase duration="7" state="rrryyyyrrr"/>
    </tlLogic>
    <tlLogic id="1273038294" type="static" programID="1" offset="0">
        <phase duration="36" state="GgGgr"/>
        <phase duration="9" state="yyyyr"/>
        <phase duration="36" state="rgGrG"/>
        <phase duration="9" state="ryyry"/>
    </tlLogic>
    <tlLogic id="1273038325" type="static" programID="1" offset="0">
        <phase duration="86" state="GgGg"/>
        <phase duration="4" state="yyyy"/>
    </tlLogic>
    <tlLogic id="1273038362" type="static" programID="1" offset="0">
        <phase duration="83" state="G"/>
        <phase duration="7" state="y"/>
    </tlLogic>
    <tlLogic id="1273038458" type="static" programID="1" offset="0">
        <phase duration="83" state="G"/>
        <phase duration="7" state="y"/>
    </tlLogic>
    <tlLogic id="1273038579" type="static" programID="1" offset="0">
        <phase duration="28" state="GGgrrrrGgg"/>
        <phase duration="9" state="yygrrrrygg"/>
        <phase duration="6" state="rrGrrrrrGG"/>
        <phase duration="9" state="rryrrrrryy"/>
        <phase duration="29" state="rrrGGGGrrr"/>
        <phase duration="9" state="rrryyyyrrr"/>
    </tlLogic>
    <tlLogic id="1273038656" type="static" programID="1" offset="0">
        <phase duration="83" state="G"/>
        <phase duration="7" state="y"/>
    </tlLogic>
    <tlLogic id="1273038664" type="static" programID="1" offset="0">
        <phase duration="70" state="GGgGgg"/>
        <phase duration="7" state="yygygg"/>
        <phase duration="6" state="rrGrGG"/>
        <phase duration="7" state="rryryy"/>
    </tlLogic>
    <tlLogic id="1273038683" type="static" programID="1" offset="0">
        <phase duration="83" state="GgGg"/>
        <phase duration="7" state="yyyy"/>
    </tlLogic>
    <tlLogic id="1446745543" type="static" programID="1" offset="0">
        <phase duration="41" state="Gr"/>
        <phase duration="4" state="yr"/>
        <phase duration="41" state="rG"/>
        <phase duration="4" state="ry"/>
    </tlLogic>
    <tlLogic id="1446842497" type="static" programID="1" offset="0">
        <phase duration="36" state="rrrGggGGg"/>
        <phase duration="4" state="rrryggyyg"/>
        <phase duration="6" state="rrrrGGrrG"/>
        <phase duration="4" state="rrrryyrry"/>
        <phase duration="36" state="GGGrrrrrr"/>
        <phase duration="4" state="yyyrrrrrr"/>
    </tlLogic>
    <tlLogic id="1446842498" type="static" programID="1" offset="0">
        <phase duration="81" state="GG"/>
        <phase duration="9" state="yy"/>
    </tlLogic>
    <tlLogic id="1446842500" type="static" programID="1" offset="0">
        <phase duration="36" state="GGr"/>
        <phase duration="9" state="yyr"/>
        <phase duration="36" state="rrG"/>
        <phase duration="9" state="rry"/>
    </tlLogic>
    <tlLogic id="1446842514" type="static" programID="1" offset="0">
        <phase duration="38" state="GGGrrr"/>
        <phase duration="7" state="yyyrrr"/>
        <phase duration="38" state="rrrGGG"/>
        <phase duration="7" state="rrryyy"/>
    </tlLogic>
    <tlLogic id="1466455140" type="static" programID="1" offset="0">
        <phase duration="36" state="GGGrrr"/>
        <phase duration="9" state="yyyrrr"/>
        <phase duration="36" state="rrrGGG"/>
        <phase duration="9" state="rrryyy"/>
    </tlLogic>
    <tlLogic id="1466455146" type="static" programID="1" offset="0">
        <phase duration="36" state="GGgGGrr"/>
        <phase duration="9" state="yyyyyrr"/>
        <phase duration="36" state="rrrGGGG"/>
        <phase duration="9" state="rrryyyy"/>
    </tlLogic>
    <tlLogic id="1466455148" type="static" programID="1" offset="0">
        <phase duration="66" state="gggGGGG"/>
        <phase duration="9" state="gggyyyy"/>
        <phase duration="6" state="GGGrrrr"/>
        <phase duration="9" state="yyyrrrr"/>
    </tlLogic>
    <tlLogic id="1466455150" type="static" programID="1" offset="0">
        <phase duration="81" state="GGGG"/>
        <phase duration="9" state="yyyy"/>
    </tlLogic>
    <tlLogic id="1466455152" type="static" programID="1" offset="0">
        <phase duration="81" state="GGG"/>
        <phase duration="9" state="yyy"/>
    </tlLogic>
    <tlLogic id="1466455161" type="static" programID="1" offset="0">
        <phase duration="36" state="Grr"/>
        <phase duration="9" state="yrr"/>
        <phase duration="36" state="rGG"/>
        <phase duration="9" state="ryy"/>
    </tlLogic>
    <tlLogic id="1466455165" type="static" programID="1" offset="0">
        <phase duration="36" state="GGgGrr"/>
        <phase duration="9" state="yyyyrr"/>
        <phase duration="36" state="rrrGGG"/>
        <phase duration="9" state="rrryyy"/>
    </tlLogic>
    <tlLogic id="1466455170" type="static" programID="1" offset="0">
        <phase duration="36" state="Grr"/>
        <phase duration="9" state="yrr"/>
        <phase duration="36" state="rGG"/>
        <phase duration="9" state="ryy"/>
    </tlLogic>
    <tlLogic id="1466455177" type="static" programID="1" offset="0">
        <phase duration="81" state="GGGG"/>
        <phase duration="9" state="yyyy"/>
    </tlLogic>
    <tlLogic id="1466455178" type="static" programID="1" offset="0">
        <phase duration="36" state="GGrr"/>
        <phase duration="9" state="yyrr"/>
        <phase duration="36" state="rrGG"/>
        <phase duration="9" state="rryy"/>
    </tlLogic>
    <tlLogic id="1504062175" type="static" programID="1" offset="0">
        <phase duration="89" state="GgGg"/>
        <phase duration="1" state="yyyy"/>
    </tlLogic>
    <tlLogic id="1505012036" type="static" programID="1" offset="0">
        <phase duration="28" state="rrrGgGG"/>
        <phase duration="9" state="rrrygyy"/>
        <phase duration="6" state="rrrrGrr"/>
        <phase duration="9" state="rrrryrr"/>
        <phase duration="29" state="GGGrrrr"/>
        <phase duration="9" state="yyyrrrr"/>
    </tlLogic>
    <tlLogic id="1505012037" type="static" programID="1" offset="0">
        <phase duration="81" state="GGGG"/>
        <phase duration="9" state="yyyy"/>
    </tlLogic>
    <tlLogic id="1505012053" type="static" programID="1" offset="0">
        <phase duration="28" state="rrGgGG"/>
        <phase duration="9" state="rrygyy"/>
        <phase duration="6" state="rrrGrr"/>
        <phase duration="9" state="rrryrr"/>
        <phase duration="29" state="GGrrrr"/>
        <phase duration="9" state="yyrrrr"/>
    </tlLogic>
    <tlLogic id="1505012056" type="static" programID="1" offset="0">
        <phase duration="36" state="GGr"/>
        <phase duration="9" state="yyr"/>
        <phase duration="36" state="rrG"/>
        <phase duration="9" state="rry"/>
    </tlLogic>
    <tlLogic id="1505012059" type="static" programID="1" offset="0">
        <phase duration="28" state="rrrGgGGg"/>
        <phase duration="9" state="rrrygyyg"/>
        <phase duration="6" state="rrrrGrrG"/>
        <phase duration="9" state="rrrryrry"/>
        <phase duration="29" state="GGGrrrrr"/>
        <phase duration="9" state="yyyrrrrr"/>
    </tlLogic>
    <tlLogic id="1505012062" type="static" programID="1" offset="0">
        <phase duration="28" state="GGgrrrGg"/>
        <phase duration="9" state="yygrrryg"/>
        <phase duration="6" state="rrGrrrrG"/>
        <phase duration="9" state="rryrrrry"/>
        <phase duration="29" state="rrrGGGrr"/>
        <phase duration="9" state="rrryyyrr"/>
    </tlLogic>
    <tlLogic id="1505012111" type="static" programID="1" offset="0">
        <phase duration="28" state="rrGgGG"/>
        <phase duration="9" state="rrygyy"/>
        <phase duration="6" state="rrrGrr"/>
        <phase duration="9" state="rrryrr"/>
        <phase duration="29" state="GGrrrr"/>
        <phase duration="9" state="yyrrrr"/>
    </tlLogic>
    <tlLogic id="1505012119" type="static" programID="1" offset="0">
        <phase duration="28" state="GGgrrrGg"/>
        <phase duration="9" state="yygrrryg"/>
        <phase duration="6" state="rrGrrrrG"/>
        <phase duration="9" state="rryrrrry"/>
        <phase duration="29" state="rrrGGGrr"/>
        <phase duration="9" state="rrryyyrr"/>
    </tlLogic>
    <tlLogic id="1505012123" type="static" programID="1" offset="0">
        <phase duration="28" state="GGrrrGg"/>
        <phase duration="9" state="yyrrryg"/>
        <phase duration="6" state="rrrrrrG"/>
        <phase duration="9" state="rrrrrry"/>
        <phase duration="29" state="rrGGGrr"/>
        <phase duration="9" state="rryyyrr"/>
    </tlLogic>
    <tlLogic id="1505012127" type="static" programID="1" offset="0">
        <phase duration="36" state="GGrr"/>
        <phase duration="9" state="yyrr"/>
        <phase duration="36" state="rrGG"/>
        <phase duration="9" state="rryy"/>
    </tlLogic>
    <tlLogic id="1535585606" type="static" programID="1" offset="0">
        <phase duration="86" state="GgGg"/>
        <phase duration="4" state="yyyy"/>
    </tlLogic>
    <tlLogic id="1672906043" type="static" programID="1" offset="0">
        <phase duration="81" state="GGgGGg"/>
        <phase duration="9" state="yyyyyy"/>
    </tlLogic>
    <tlLogic id="1672906059" type="static" programID="1" offset="0">
        <phase duration="83" state="GgGg"/>
        <phase duration="7" state="yyyy"/>
    </tlLogic>
    <tlLogic id="1720485436" type="static" programID="1" offset="0">
        <phase duration="25" state="rrrrGGggrrrrGGgg"/>
        <phase duration="7" state="rrrryyggrrrryygg"/>
        <phase duration="6" state="rrrrrrGGrrrrrrGG"/>
        <phase duration="7" state="rrrrrryyrrrrrryy"/>
        <phase duration="25" state="GGggrrrrGGggrrrr"/>
        <phase duration="7" state="yyggrrrryyggrrrr"/>
        <phase duration="6" state="rrGGrrrrrrGGrrrr"/>
        <phase duration="7" state="rryyrrrrrryyrrrr"/>
    </tlLogic>
    <tlLogic id="1720485444" type="static" programID="1" offset="0">
        <phase duration="32" state="GGgrrrGgg"/>
        <phase duration="7" state="yygrrrygg"/>
        <phase duration="6" state="rrGrrrrGG"/>
        <phase duration="7" state="rryrrrryy"/>
        <phase duration="31" state="rrrGGGrrr"/>
        <phase duration="7" state="rrryyyrrr"/>
    </tlLogic>
    <tlLogic id="1720485456" type="static" programID="1" offset="0">
        <phase duration="25" state="GGggrrrrGGggrrrr"/>
        <phase duration="7" state="yyggrrrryyggrrrr"/>
        <phase duration="6" state="rrGGrrrrrrGGrrrr"/>
        <phase duration="7" state="rryyrrrrrryyrrrr"/>
        <phase duration="25" state="rrrrGGggrrrrGGgg"/>
        <phase duration="7" state="rrrryyggrrrryygg"/>
        <phase duration="6" state="rrrrrrGGrrrrrrGG"/>
        <phase duration="7" state="rrrrrryyrrrrrryy"/>
    </tlLogic>
    <tlLogic id="1720485460" type="static" programID="1" offset="0">
        <phase duration="25" state="GGggrrrrGGggrrrr"/>
        <phase duration="7" state="yyggrrrryyggrrrr"/>
        <phase duration="6" state="rrGGrrrrrrGGrrrr"/>
        <phase duration="7" state="rryyrrrrrryyrrrr"/>
        <phase duration="25" state="rrrrGGggrrrrGGgg"/>
        <phase duration="7" state="rrrryyggrrrryygg"/>
        <phase duration="6" state="rrrrrrGGrrrrrrGG"/>
        <phase duration="7" state="rrrrrryyrrrrrryy"/>
    </tlLogic>
    <tlLogic id="1722528717" type="static" programID="1" offset="0">
        <phase duration="41" state="GGgrrGg"/>
        <phase duration="4" state="yyyrryy"/>
        <phase duration="41" state="rrrGGrG"/>
        <phase duration="4" state="rrryyry"/>
    </tlLogic>
    <tlLogic id="1722528719" type="static" programID="1" offset="0">
        <phase duration="41" state="GgGGgrrr"/>
        <phase duration="4" state="yyyyyrrr"/>
        <phase duration="41" state="rGrrrGGG"/>
        <phase duration="4" state="ryrrryyy"/>
    </tlLogic>
    <tlLogic id="1722528725" type="static" programID="1" offset="0">
        <phase duration="36" state="GGrrr"/>
        <phase duration="9" state="yyrrr"/>
        <phase duration="36" state="rrGGG"/>
        <phase duration="9" state="rryyy"/>
    </tlLogic>
    <tlLogic id="1723342772" type="static" programID="1" offset="0">
        <phase duration="38" state="GGrr"/>
        <phase duration="7" state="yyrr"/>
        <phase duration="38" state="rrGG"/>
        <phase duration="7" state="rryy"/>
    </tlLogic>
    <tlLogic id="1723342782" type="static" programID="1" offset="0">
        <phase duration="38" state="GgrrGGg"/>
        <phase duration="7" state="yyrryyy"/>
        <phase duration="38" state="rrGGrrr"/>
        <phase duration="7" state="rryyrrr"/>
    </tlLogic>
    <tlLogic id="1723342784" type="static" programID="1" offset="0">
        <phase duration="70" state="GGggGGGgg"/>
        <phase duration="7" state="yyggyyygg"/>
        <phase duration="6" state="rrGGrrrGG"/>
        <phase duration="7" state="rryyrrryy"/>
    </tlLogic>
    <tlLogic id="1723590047" type="static" programID="1" offset="0">
        <phase duration="28" state="rrrrGggGGg"/>
        <phase duration="9" state="rrrryggyyg"/>
        <phase duration="6" state="rrrrrGGrrG"/>
        <phase duration="9" state="rrrrryyrry"/>
        <phase duration="29" state="GGGGrrrrrr"/>
        <phase duration="9" state="yyyyrrrrrr"/>
    </tlLogic>
    <tlLogic id="1926948285" type="static" programID="1" offset="0">
        <phase duration="38" state="rrGgGg"/>
        <phase duration="7" state="rryyyy"/>
        <phase duration="38" state="GGrrrr"/>
        <phase duration="7" state="yyrrrr"/>
    </tlLogic>
    <tlLogic id="1995669563" type="static" programID="1" offset="0">
        <phase duration="36" state="GGGrr"/>
        <phase duration="9" state="yyyrr"/>
        <phase duration="36" state="rrrGG"/>
        <phase duration="9" state="rrryy"/>
    </tlLogic>
    <tlLogic id="2002014271" type="static" programID="1" offset="0">
        <phase duration="25" state="rrrrGGggrrrrGGgg"/>
        <phase duration="7" state="rrrryyggrrrryygg"/>
        <phase duration="6" state="rrrrrrGGrrrrrrGG"/>
        <phase duration="7" state="rrrrrryyrrrrrryy"/>
        <phase duration="25" state="GGggrrrrGGggrrrr"/>
        <phase duration="7" state="yyggrrrryyggrrrr"/>
        <phase duration="6" state="rrGGrrrrrrGGrrrr"/>
        <phase duration="7" state="rryyrrrrrryyrrrr"/>
    </tlLogic>
    <tlLogic id="2002014273" type="static" programID="1" offset="0">
        <phase duration="81" state="GG"/>
        <phase duration="9" state="yy"/>
    </tlLogic>
    <tlLogic id="2002014274" type="static" programID="1" offset="0">
        <phase duration="25" state="rrrrrrGGgGgg"/>
        <phase duration="7" state="rrrrrryygygg"/>
        <phase duration="6" state="rrrrrrrrGrGG"/>
        <phase duration="7" state="rrrrrrrryryy"/>
        <phase duration="25" state="GGGgggrrrrrr"/>
        <phase duration="7" state="yyygggrrrrrr"/>
        <phase duration="6" state="rrrGGGrrrrrr"/>
        <phase duration="7" state="rrryyyrrrrrr"/>
    </tlLogic>
    <tlLogic id="2031882172" type="static" programID="1" offset="0">
        <phase duration="32" state="GggrrrGGg"/>
        <phase duration="7" state="yggrrryyg"/>
        <phase duration="6" state="rGGrrrrrG"/>
        <phase duration="7" state="ryyrrrrry"/>
        <phase duration="31" state="rrrGGgGrr"/>
        <phase duration="7" state="rrryyyyrr"/>
    </tlLogic>
    <tlLogic id="2043097290" type="static" programID="1" offset="0">
        <phase duration="32" state="GGGgGGggrrrrr"/>
        <phase duration="7" state="yyygyyggrrrrr"/>
        <phase duration="6" state="rrrGrrGGrrrrr"/>
        <phase duration="7" state="rrryrryyrrrrr"/>
        <phase duration="31" state="GrrrrrrrGGGGg"/>
        <phase duration="7" state="yrrrrrrryyyyy"/>
    </tlLogic>
    <tlLogic id="2043097295" type="static" programID="1" offset="0">
        <phase duration="32" state="GGGgrrrrGGGgg"/>
        <phase duration="7" state="yyygrrrryyygg"/>
        <phase duration="6" state="rrrGrrrrrrrGG"/>
        <phase duration="7" state="rrryrrrrrrryy"/>
        <phase duration="31" state="GrrrGGGGrrrrr"/>
        <phase duration="7" state="yrrryyyyrrrrr"/>
    </tlLogic>
    <tlLogic id="2043097297" type="static" programID="1" offset="0">
        <phase duration="32" state="rrrrGGggGGGGg"/>
        <phase duration="7" state="rrrryyggyyyyg"/>
        <phase duration="6" state="rrrrrrGGrrrrG"/>
        <phase duration="7" state="rrrrrryyrrrry"/>
        <phase duration="31" state="GGGGrrrrrrrrr"/>
        <phase duration="7" state="yyyyrrrrrrrrr"/>
    </tlLogic>
    <tlLogic id="2046348191" type="static" programID="1" offset="0">
        <phase duration="28" state="rrrrGggGGg"/>
        <phase duration="9" state="rrrryggyyg"/>
        <phase duration="6" state="rrrrrGGrrG"/>
        <phase duration="9" state="rrrrryyrry"/>
        <phase duration="29" state="GGGGrrrrrr"/>
        <phase duration="9" state="yyyyrrrrrr"/>
    </tlLogic>
    <tlLogic id="2050931381" type="static" programID="1" offset="0">
        <phase duration="28" state="GGgrrrrGgg"/>
        <phase duration="9" state="yygrrrrygg"/>
        <phase duration="6" state="rrGrrrrrGG"/>
        <phase duration="9" state="rryrrrrryy"/>
        <phase duration="29" state="rrrGGGGrrr"/>
        <phase duration="9" state="rrryyyyrrr"/>
    </tlLogic>
    <tlLogic id="2050931507" type="static" programID="1" offset="0">
        <phase duration="36" state="GGGrr"/>
        <phase duration="9" state="yyyrr"/>
        <phase duration="36" state="rrrGG"/>
        <phase duration="9" state="rrryy"/>
    </tlLogic>
    <tlLogic id="2051219340" type="static" programID="1" offset="0">
        <phase duration="25" state="GGggrrrGGGgrrr"/>
        <phase duration="7" state="yyggrrryyygrrr"/>
        <phase duration="6" state="rrGGrrrrrrGrrr"/>
        <phase duration="7" state="rryyrrrrrryrrr"/>
        <phase duration="25" state="rrrrGggrrrrGGg"/>
        <phase duration="7" state="rrrryggrrrryyg"/>
        <phase duration="6" state="rrrrrGGrrrrrrG"/>
        <phase duration="7" state="rrrrryyrrrrrry"/>
    </tlLogic>
    <tlLogic id="2063107746" type="static" programID="1" offset="0">
        <phase duration="36" state="GGrr"/>
        <phase duration="9" state="yyrr"/>
        <phase duration="36" state="rrGG"/>
        <phase duration="9" state="rryy"/>
    </tlLogic>
    <tlLogic id="2063107749" type="static" programID="1" offset="0">
        <phase duration="36" state="GGGGrrrr"/>
        <phase duration="9" state="yyyyrrrr"/>
        <phase duration="36" state="rrrrGGGG"/>
        <phase duration="9" state="rrrryyyy"/>
    </tlLogic>
    <tlLogic id="2063258447" type="static" programID="1" offset="0">
        <phase duration="36" state="GGGr"/>
        <phase duration="9" state="yyyr"/>
        <phase duration="36" state="rrrG"/>
        <phase duration="9" state="rrry"/>
    </tlLogic>
    <tlLogic id="2088253314" type="static" programID="1" offset="0">
        <phase duration="32" state="GGGgggGGGGgrrrrrrr"/>
        <phase duration="7" state="yyygggyyyygrrrrrrr"/>
        <phase duration="6" state="rrrGGGrrrrGrrrrrrr"/>
        <phase duration="7" state="rrryyyrrrryrrrrrrr"/>
        <phase duration="31" state="rrrrrrrrrrrGGGGGGG"/>
        <phase duration="7" state="rrrrrrrrrrryyyyyyy"/>
    </tlLogic>
    <tlLogic id="2092565993" type="static" programID="1" offset="0">
        <phase duration="81" state="GG"/>
        <phase duration="9" state="yy"/>
    </tlLogic>
    <tlLogic id="2112376963" type="static" programID="1" offset="0">
        <phase duration="32" state="GggGGgrrr"/>
        <phase duration="7" state="yggyygrrr"/>
        <phase duration="6" state="rGGrrGrrr"/>
        <phase duration="7" state="ryyrryrrr"/>
        <phase duration="31" state="rrrrrrGGG"/>
        <phase duration="7" state="rrrrrryyy"/>
    </tlLogic>
    <tlLogic id="2112377011" type="static" programID="1" offset="0">
        <phase duration="25" state="GGggrrrrGGggrrrr"/>
        <phase duration="7" state="yyggrrrryyggrrrr"/>
        <phase duration="6" state="rrGGrrrrrrGGrrrr"/>
        <phase duration="7" state="rryyrrrrrryyrrrr"/>
        <phase duration="25" state="rrrrGGggrrrrGGgg"/>
        <phase duration="7" state="rrrryyggrrrryygg"/>
        <phase duration="6" state="rrrrrrGGrrrrrrGG"/>
        <phase duration="7" state="rrrrrryyrrrrrryy"/>
    </tlLogic>
    <tlLogic id="2132268507" type="static" programID="1" offset="0">
        <phase duration="86" state="GgGg"/>
        <phase duration="4" state="yyyy"/>
    </tlLogic>
    <tlLogic id="2132268511" type="static" programID="1" offset="0">
        <phase duration="86" state="G"/>
        <phase duration="4" state="y"/>
    </tlLogic>
    <tlLogic id="2132268524" type="static" programID="1" offset="0">
        <phase duration="86" state="GgGg"/>
        <phase duration="4" state="yyyy"/>
    </tlLogic>
    <tlLogic id="2137955730" type="static" programID="1" offset="0">
        <phase duration="36" state="GGrr"/>
        <phase duration="9" state="yyrr"/>
        <phase duration="36" state="rrGG"/>
        <phase duration="9" state="rryy"/>
    </tlLogic>
    <tlLogic id="2142307087" type="static" programID="1" offset="0">
        <phase duration="32" state="GGgrrrGgg"/>
        <phase duration="7" state="yygrrrygg"/>
        <phase duration="6" state="rrGrrrrGG"/>
        <phase duration="7" state="rryrrrryy"/>
        <phase duration="31" state="rrrGGGrrr"/>
        <phase duration="7" state="rrryyyrrr"/>
    </tlLogic>
    <tlLogic id="2142307088" type="static" programID="1" offset="0">
        <phase duration="32" state="GggGGgrrr"/>
        <phase duration="7" state="yggyygrrr"/>
        <phase duration="6" state="rGGrrGrrr"/>
        <phase duration="7" state="ryyrryrrr"/>
        <phase duration="31" state="rrrrrrGGG"/>
        <phase duration="7" state="rrrrrryyy"/>
    </tlLogic>
    <tlLogic id="2178660154" type="static" programID="1" offset="0">
        <phase duration="38" state="rrGgGg"/>
        <phase duration="7" state="rryyyy"/>
        <phase duration="38" state="GGrrrr"/>
        <phase duration="7" state="yyrrrr"/>
    </tlLogic>
    <tlLogic id="2178660155" type="static" programID="1" offset="0">
        <phase duration="81" state="GGG"/>
        <phase duration="9" state="yyy"/>
    </tlLogic>
    <tlLogic id="2323973424" type="static" programID="1" offset="0">