<?xml version="1.0" encoding="UTF-8"?>

<!-- generated on Thu Aug 24 00:08:13 2017 by SUMO duarouter Version 0.30.0
<?xml version="1.0" encoding="UTF-8"?>

<configuration xmlns:xsi="http://www.w3.org/2001/XMLSchema-instance" xsi:noNamespaceSchemaLocation="http://sumo.dlr.de/xsd/duarouterConfiguration.xsd">

    <input>
        <net-file value="rivadavia.net.xml"/>
        <additional-files value="vtype.add.xml"/>
        <trip-files value="trips.trips.xml"/>
    </input>

    <output>
        <output-file value="rivadavia.rou.xml"/>
    </output>

    <processing>
        <ignore-errors value="true"/>
    </processing>

    <time>
        <begin value="0"/>
        <end value="500.0"/>
    </time>

    <report>
        <no-warnings value="true"/>
        <no-step-log value="true"/>
    </report>

</configuration>
-->

<routes>
    <vType id="passenger" maxSpeed="50.00"/>
    <vehicle id="0" type="passenger" depart="0.00" departLane="best">
        <route edges="75201453 73255133 75112472#0 75112472#1 75112472#2 73255164#0 73255164#1 27122600#0 27122600#1 265314124 73255184 27053786#0"/>
    </vehicle>
    <vehicle id="1" type="passenger" depart="0.50" departLane="best">
        <route edges="75201454#1 75201454#2 75201454#3 75201454#4 75201454#5 27078417 75201473 75739328#0"/>
    </vehicle>
    <vehicle id="2" type="passenger" depart="1.00" departLane="best">
        <route edges="75193811#0 75193811#1 75193811#2 74709025 75359304#0 75359304#1"/>
    </vehicle>
    <vehicle id="3" type="passenger" depart="1.50" departLane="best">
        <route edges="75739345#3 75739345#4 75739345#5 75739345#6 431340101#0 431340101#1 431340101#2 27082629#0 27083324#1 75042825 75359304#0"/>
    </vehicle>
    <vehicle id="4" type="passenger" depart="2.00" departLane="best">
        <route edges="75042826 431340128 74433840#0 74433840#1"/>
    </vehicle>
    <vehicle id="5" type="passenger" depart="2.50" departLane="best">
        <route edges="27053786#0 27053786#1 27053786#2 74709049 431340128 27082629#0 27082629#1 27082629#2 27082629#3 27082628#1 27082628#2 265322458#0"/>
    </vehicle>
    <vehicle id="6" type="passenger" depart="3.00" departLane="best">
        <route edges="74724938#1 27083325#0 75193811#1 75193811#2 74709049 431340128 74433840#0 74433840#1 142497264 75112472#0 75112472#1 75112472#2 73255164#0"/>
    </vehicle>
    <vehicle id="7" type="passenger" depart="3.50" departLane="best">
        <route edges="160464620 446372799#0 446372799#1 27122600#0 27122600#1 431340101#0 431340101#1 431340101#2 27082629#0 27082629#1 75201454#5 27082604#2 27053791#0"/>
    </vehicle>
    <vehicle id="8" type="passenger" depart="4.00" departLane="best">
        <route edges="27082628#1 121815296#0 27082625#0 27082625#1 27082625#2 74433809#1 74433809#2 74433809#3 75042825 75359304#0 75359304#1 27083325#2 75201454#1 75201454#2"/>
    </vehicle>
    <vehicle id="9" type="passenger" depart="4.50" departLane="best">
        <route edges="75744490#0 75744490#1 160464620 446372799#0 446372799#1 27122600#0 27122600#1 265314124 142497496#0 142497496#1 75042822#0 75042822#1 27639510 27639507#0 27639507#1"/>
    </vehicle>
    <vehicle id="10" type="passenger" depart="5.00" departLane="best">
        <route edges="265322458#4 -265322458#4 -265322458#3 -265322458#2 -265322458#1 -265322458#0 27082628#0 27082628#1 121815296#0 27082625#0 27082625#1 27486761"/>
    </vehicle>
    <vehicle id="11" type="passenger" depart="5.50" departLane="best">
        <route edges="75193811#1 75193811#2 74709025 75356673#0 75201454#3 74433809#3"/>
    </vehicle>
    <vehicle id="12" type="passenger" depart="6.00" departLane="best">
        <route edges="75042822#1 75042822#2 75042822#3 27053171 75096252#0 75744490#1 27056027#0 75739345#4"/>
    </vehicle>
    <vehicle id="48" type="passenger" depart="24.00" departLane="best">
        <route edges="75042825 75359304#0 28408742#3 75193811#2 74709049"/>
    </vehicle>
    <vehicle id="49" type="passenger" depart="24.50" departLane="best">
        <route edges="27083325#2 75201454#1 28408742#2 28408742#3 28408742#4 74724938#1 74724938#2"/>
    </vehicle>
    <vehicle id="50" type="passenger" depart="25.00" departLane="best">
        <route edges="74516072#0 75251438#3 73255201 27083324#0 27083324#1 75042825 75359304#0 75359304#1 75359304#2"/>
    </vehicle>
    <vehicle id="51" type="passenger" depart="25.50" departLane="best">
        <route edges="75744490#1 160464620 446372799#0 446372799#1 27122600#0 27122600#1 431340101#0 431340101#1 431340101#2 27082629#0 27082629#1 75201454#5 27078417 75201473 75739347#0"/>
    </vehicle>
    <vehicle id="52" type="passenger" depart="26.00" departLane="best">
        <route edges="265322458#1 75262974#2 75109405 75201453 73255133 75112472#0"/>
    </vehicle>
    <vehicle id="53" type="passenger" depart="26.50" departLane="best">
        <route edges="446372799#0 446372799#1 27122600#0 27122600#1 431340101#0 431340101#1 431340101#2 27082629#0 27082629#1 75201454#5 27078417 75201473 75739328#0 75739328#1 74516082#2 75109400#6"/>
    </vehicle>
    <vehicle id="54" type="passenger" depart="27.00" departLane="best">
        <route edges="27056027#0 75739345#4 75042822#3 27053171 75096174 74371262#0 74371262#1"/>
    </vehicle>
    <vehicle id="55" type="passenger" depart="27.50" departLane="best">
        <route edges="27082604#0 27083324#0 27083324#1 75042826 431340128"/>
    </vehicle>
    <vehicle id="57" type="passenger" depart="28.50" departLane="best">
        <route edges="75193811#1 75193811#2 74709049 74433785 142497496#0 142497496#1 75042822#0 75042822#1 75042822#2 75042822#3 446372799#0"/>
    </vehicle>
    <vehicle id="58" type="passenger" depart="29.00" departLane="best">
        <route edges="75109400#7 75109400#8 75109404 27053791#0 27053791#1 27053791#2"/>
    </vehicle>
    <vehicle id="59" type="passenger" depart="29.50" departLane="best">
        <route edges="265322458#1 75262974#2 75109405 75201473 75739328#0 75739328#1 74516082#2"/>
    </vehicle>
    <vehicle id="60" type="passenger" depart="30.00" departLane="best">
        <route edges="270244026#1 75109400#7 75109400#8 75109405 75201453 73255133 75112472#0 75112472#1 75112472#2 73255164#0 73255164#1 27122600#0 27122600#1 265314124 142497496#0 142497496#1 75042822#0 75042822#1 75042822#2 75739345#5 75739345#6"/>
    </vehicle>
    <vehicle id="61" type="passenger" depart="30.50" departLane="best">
        <route edges="75193811#1 28408742#4 74724938#1"/>
    </vehicle>
    <vehicle id="62" type="passenger" depart="31.00" departLane="best">
        <route edges="75109400#8 75109405 75201473"/>
    </vehicle>
    <vehicle id="63" type="passenger" depart="31.50" departLane="best">
        <route edges="27083325#1 27083325#2 75201454#1 75201454#2 75201454#3 75201454#4 75201454#5 27078417 75201453 73255133 75112472#0 75112472#1 75112472#2 27052071#0 27052071#1"/>
    </vehicle>
    <vehicle id="64" type="passenger" depart="32.00" departLane="best">
        <route edges="75201454#0 75201454#1 75201454#2"/>
    </vehicle>
    <vehicle id="65" type="passenger" depart="32.50" departLane="best">
        <route edges="75201454#1 75201454#2 75201454#3 75201454#4 75201454#5 27078417 75201453 73255133 75112472#0 75112472#1 75112472#2 27052071#0 27052071#1 75096252#0 75096252#1"/>
    </vehicle>
    <vehicle id="66" type="passenger" depart="33.00" departLane="best">
        <route edges="75201473 75739347#0 75109400#8 75109405 75201453 73255201 27083324#0 27083324#1 75042825 75356673#0 75201454#3"/>
    </vehicle>
    <vehicle id="67" type="passenger" depart="33.50" departLane="best">
        <route edges="75042826 431340128 27082629#0 27082629#1 27082629#2 27082629#3 27082628#1 27082628#2 265322458#0 265322458#1 265322458#2 265322458#3 265322458#4 -265322458#4"/>
    </vehicle>
    <vehicle id="68" type="passenger" depart="34.00" departLane="best">
        <route edges="160464618 160464620 446372799#0 446372799#1 27122600#0 27122600#1 431340101#0 431340101#1 431340101#2 27082629#0 27082629#1 27082629#2 27082629#3 27082628#1 27082628#2 265322458#0 265322458#1 265322458#2 265322458#3 -265322458#3"/>
    </vehicle>
    <vehicle id="69" type="passenger" depart="34.50" departLane="best">
        <route edges="27082628#2 265322458#0 265322458#1 75262974#2 75109405 75201453 73255133 75112472#0 75112472#1 75112472#2 73255164#0 73255164#1 27122600#0 27122600#1 265314124 73255184 27053786#0 27053786#1 27053786#2 74709049"/>
    </vehicle>
    <vehicle id="70" type="passenger" depart="35.00" departLane="best">
        <route edges="27052069#0 27052069#1 74371262#1 75114130 73255164#0 73255164#1 27122600#0 27122600#1 431340101#0 431340101#1 431340101#2 27082629#0 27082629#1 27082629#2 27082629#3 27082628#1 27082628#2 265322458#0 -265322458#0"/>
    </vehicle>
    <vehicle id="71" type="passenger" depart="35.50" departLane="best">
        <route edges="142496491 74516082#0 75251438#1 75251438#2 75251438#3 73255133 75112472#0 75112472#1 75112472#2 27052071#0 27052069#1 74371262#1"/>
    </vehicle>
    <vehicle id="72" type="passenger" depart="36.00" departLane="best">
        <route edges="75042822#3 446372799#0 446372799#1 27122600#0 27122600#1 431340101#0 431340101#1 431340101#2 27082629#0 27083324#1 75042825 75356673#0 75356673#1"/>
    </vehicle>
    <vehicle id="74" type="passenger" depart="37.00" departLane="best">
        <route edges="265322458#1 75262974#2 75109405 75201453 73255133 75112472#0 75112472#1 75112472#2 73255164#0 73255164#1 27122600#0 27122600#1 431340101#0 431340101#1 431340101#2 74433840#0 74433840#1 27082604#0"/>
    </vehicle>
    <vehicle id="75" type="passenger" depart="37.50" departLane="best">
        <route edges="27083324#1 75042825 75359304#0 28408742#3 75193811#2 74709049"/>
    </vehicle>
    <vehicle id="76" type="passenger" depart="38.00" departLane="best">
        <route edges="75744490#0 75744490#1 160464620 446372799#0 446372799#1 27122600#0 27122600#1 431340101#0 431340101#1 431340101#2 27082629#0 27083324#1 75042826 431340128"/>
    </vehicle>
    <vehicle id="77" type="passenger" depart="38.50" departLane="best">
        <route edges="75109405 75201453 73255133 75112472#0 75112472#1 75112472#2 73255164#0 73255164#1 27122600#0 27122600#1 265314124 73255184 74724938#0 74724938#1"/>
    </vehicle>
    <vehicle id="78" type="passenger" depart="39.00" departLane="best">
        <route edges="74709011 27053786#0 27053786#1 27053786#2 74709049 431340128 27082629#0 27082629#1 27082629#2 27082629#3 27082628#1 27082628#2 265322458#0 265322458#1 265322458#2 265322458#3 265322458#4 -265322458#4"/>
    </vehicle>
    <vehicle id="79" type="passenger" depart="39.50" departLane="best">
        <route edges="75193811#0 75193811#1 75193811#2 74709049 431340128 27082629#0 27082629#1 27082629#2 27082629#3 27082628#1 121815296#0"/>
    </vehicle>
    <vehicle id="80" type="passenger" depart="40.00" departLane="best">
        <route edges="75112472#1 75112472#2 73255164#0 73255164#1 -446372799#1 -446372799#0 27053171"/>
    </vehicle>
    <vehicle id="81" type="passenger" depart="40.50" departLane="best">
        <route edges="27053791#1 27053791#2"/>
    </vehicle>
    <vehicle id="82" type="passenger" depart="41.00" departLane="best">
        <route edges="75739345#6 431340101#0 431340101#1 431340101#2 27082629#0 27082629#1 27082629#2 27082629#3 27082628#1 27082628#2 27082628#0"/>
    </vehicle>
    <vehicle id="84" type="passenger" depart="42.00" departLane="best">
        <route edges="75415229#0 75415229#1 75114130 73255164#0 73255164#1 27122600#0 27122600#1 431340101#0 431340101#1 431340101#2 27082629#0 27082629#1 27082629#2 27082629#3 27082628#1 27082628#2 265322458#0 265322458#1 265322458#2 265322458#3 265322458#4 265322458#5"/>
    </vehicle>
    <vehicle id="85" type="passenger" depart="42.50" departLane="best">
        <route edges="27053786#1 27053786#2 74709049 431340128 27082629#0 27082629#1 75201454#5 27078417 75201473 75739328#0 75739328#1"/>
    </vehicle>
    <vehicle id="86" type="passenger" depart="43.00" departLane="best">
        <route edges="75112472#1 75112472#2 73255164#0 73255164#1 27122600#0 27122600#1 431340101#0 431340101#1 431340101#2 27082629#0 27082629#1 27082629#2"/>
    </vehicle>
    <vehicle id="87" type="passenger" depart="43.50" departLane="best">
        <route edges="74371262#0 74371262#1 27082600"/>
    </vehicle>
    <vehicle id="88" type="passenger" depart="44.00" departLane="best">
        <route edges="431340101#1 431340101#2 74433840#0 74433840#1 142497264 75112472#0 75112472#1 75112472#2 27052071#0 27052069#1 74371262#1 27082600"/>
    </vehicle>
    <vehicle id="89" type="passenger" depart="44.50" departLane="best">
        <route edges="74516072#1 75739347#0 75109400#8 75109405 75201453 73255201 27083324#0 27083324#1 75042825 75359304#0 28408742#3 75193811#2"/>
    </vehicle>
    <vehicle id="90" type="passenger" depart="45.00" departLane="best">
        <route edges="270244026#1 75109400#7 75739347#1 -265322458#2 -265322458#1 -265322458#0 27082628#0 27082628#1 121815296#0 27082625#0 27082625#1 27082625#2 27082625#3"/>
    </vehicle>
    <vehicle id="91" type="passenger" depart="45.50" departLane="best">
        <route edges="27082628#1 27082628#2 265322458#0 265322458#1 75262974#2 75109405 75201453 73255133 75112472#0 75112472#1 75112472#2 73255164#0 73255164#1 27122600#0 27122600#1 265314124 73255184 74724938#0 74724938#1 27083325#0 27083325#1"/>
    </vehicle>
    <vehicle id="92" type="passenger" depart="46.00" departLane="best">
        <route edges="160464620 446372799#0 446372799#1 27122600#0 27122600#1 431340101#0 431340101#1 431340101#2"/>
    </vehicle>
    <vehicle id="93" type="passenger" depart="46.50" departLane="best">
        <route edges="75201454#1 28408742#2 28408742#3 75193811#2 74709049 74433785 142497496#0 142497496#1 75042822#0 75042822#1 75042822#2 75042822#3 -160464620 -160464618"/>
    </vehicle>
    <vehicle id="94" type="passenger" depart="47.00" departLane="best">
        <route edges="270244026#4 270244026#5 75415229#1 75114130 73255164#0 73255164#1 27122600#0 27122600#1 265314124 142497496#0 142497496#1 75042822#0 75042822#1"/>
    </vehicle>
    <vehicle id="95" type="passenger" depart="47.50" departLane="best">
        <route edges="74724938#1 27083325#0 75193811#1 75193811#2 74709049 74433785 142497496#0"/>
    </vehicle>
    <vehicle id="96" type="passenger" depart="48.00" departLane="best">
        <route edges="-75452225 27082625#1 27082625#2 74433809#1 74433809#2 75201454#4 75201454#5 27078417 75201453 73255133 75112472#0 75112472#1 75112472#2 27052071#0 27052069#1 74371262#1 27082600"/>
    </vehicle>
    <vehicle id="97" type="passenger" depart="48.50" departLane="best">
        <route edges="27639510 27639507#0 27639509 75042822#1 75042822#2 75042822#3 27053171 75096174 74371262#0 74371262#1 27082600 74516068#0 270244026#5"/>
    </vehicle>
    <vehicle id="98" type="passenger" depart="49.00" departLane="best">
        <route edges="73255184 27053786#0 27053786#1 27053786#2 74709049 431340128 27082629#0 27082629#1 27082629#2 27082629#3 27082628#1 27082628#2 265322458#0"/>
    </vehicle>
    <vehicle id="99" type="passenger" depart="49.50" departLane="best">
        <route edges="265322458#0 265322458#1 75262974#2 75109405 75201453 73255133 75112472#0 75112472#1 75112472#2 27052071#0 27052071#1 75096252#0 75744490#1 27056027#0 75739345#4"/>
    </vehicle>
    <vehicle id="100" type="passenger" depart="50.00" departLane="best">
        <route edges="27082629#1 27082629#2 27053791#1 27053791#2 74433809#2 74433809#3 75042825 75359304#0 75359304#1 27083325#2 75201454#1 75201454#2"/>
    </vehicle>
    <vehicle id="101" type="passenger" depart="50.50" departLane="best">
        <route edges="75109405 75201453 73255133 75112472#0 75112472#1 75112472#2 73255164#0 73255164#1 -446372799#1 -446372799#0 -160464620 -160464618"/>
    </vehicle>
    <vehicle id="102" type="passenger" depart="51.00" departLane="best">
        <route edges="27639507#0 27639509 75042822#1 75042822#2 75739345#5 75739345#6 431340101#0 431340101#1 431340101#2 27082629#0 27082629#1 75201454#5 27078417 75201473 75739328#0"/>
    </vehicle>
    <vehicle id="103" type="passenger" depart="51.50" departLane="best">
        <route edges="75193811#0 75193811#1 75193811#2 74709049 74433785 142497496#0 142497496#1 75042822#0 75042822#1 75042822#2 75042822#3 27053171 75096252#0 75744490#1 27056027#0 27056027#1"/>
    </vehicle>
    <vehicle id="104" type="passenger" depart="52.00" departLane="best">
        <route edges="27052069#1 74371262#1 75114130 73255164#0 73255164#1 27122600#0 27122600#1 265314124 73255184 74724938#0 74724938#1 27083325#0 75193811#1 28408742#4"/>
    </vehicle>
    <vehicle id="105" type="passenger" depart="52.50" departLane="best">
        <route edges="446372799#0 27052069#0 27052069#1 74371262#1 75114130 73255164#0"/>
    </vehicle>
    <vehicle id="106" type="passenger" depart="53.00" departLane="best">
        <route edges="27052071#0 27052069#1 74371262#1 75114130 73255164#0 73255164#1 27122600#0 27122600#1 431340101#0 431340101#1 431340101#2 27082629#0 27082629#1 27082629#2 27082629#3 27082628#1"/>
    </vehicle>
    <vehicle id="107" type="passenger" depart="53.50" departLane="best">
        <route edges="75739345#4 75739345#5 75739345#6 431340101#0 431340101#1 431340101#2 27082629#0 27082629#1 27082629#2 27082629#3 27082628#1 121815296#0 27082625#0 27082625#1 27082625#2 27082625#3"/>
    </vehicle>
    <vehicle id="108" type="passenger" depart="54.00" departLane="best">
        <route edges="75201454#5 27078417 75201453 73255201 27083324#0 27082629#1 27082629#2"/>
    </vehicle>
    <vehicle id="109" type="passenger" depart="54.50" departLane="best">
        <route edges="75739328#0 270244026#3 75251438#2 75251438#3 73255201 27083324#0 27082629#1 27082629#2"/>
    </vehicle>
    <vehicle id="110" type="passenger" depart="55.00" departLane="best">
        <route edges="75739347#0 75109400#8 75109405 75201453 73255133 75112472#0 75112472#1 75112472#2 73255164#0 73255164#1 27122600#0 27122600#1 431340101#0 431340101#1 431340101#2 27082629#0"/>
    </vehicle>
    <vehicle id="111" type="passenger" depart="55.50" departLane="best">
        <route edges="270244026#2 270244026#3 75251438#2 75251438#3 73255201 27083324#0 27083324#1 75042826 74433785"/>
    </vehicle>
    <vehicle id="112" type="passenger" depart="56.00" departLane="best">
        <route edges="27082628#0 27082628#1 121815296#0 27082625#0 27082625#1 27082625#2 74433809#1 74433809#2 74433809#3 75042825 75359304#0 28408742#3 28408742#4"/>
    </vehicle>
    <vehicle id="113" type="passenger" depart="56.50" departLane="best">
        <route edges="142497264 75112493 74516068#0 74516068#1 74516082#0"/>
    </vehicle>
    <vehicle id="114" type="passenger" depart="57.00" departLane="best">
        <route edges="27053791#1 27053791#2 74433809#2 75201454#4 27082629#2 27082629#3 27082628#1 121815296#0 121815296#1 121815296#2"/>
    </vehicle>
    <vehicle id="116" type="passenger" depart="58.00" departLane="best">
        <route edges="75739347#1 265322458#3 270244026#1 270244026#2"/>
    </vehicle>
    <vehicle id="117" type="passenger" depart="58.50" departLane="best">
        <route edges="74433809#1 74433809#2 75201454#4 27082629#2 27082629#3"/>
    </vehicle>
    <vehicle id="118" type="passenger" depart="59.00" departLane="best">
        <route edges="160464620 446372799#0 27052069#0 27052069#1 74371262#1 27082600 74516072#0"/>
    </vehicle>
    <vehicle id="119" type="passenger" depart="59.50" departLane="best">
        <route edges="74433785 73255184"/>
    </vehicle>
    <vehicle id="120" type="passenger" depart="60.00" departLane="best">
        <route edges="75744490#0 75744490#1 160464620 446372799#0 446372799#1 27122600#0 27122600#1 265314124 142497496#0 142497496#1 75042822#0 75042822#1 75042822#2"/>
    </vehicle>
    <vehicle id="121" type="passenger" depart="60.50" departLane="best">
        <route edges="27053791#1 27053791#2 74433809#2 75201454#4 27082629#2 27082629#3 27082628#1 27082628#2 265322458#0 265322458#1 265322458#2 265322458#3 270244026#1 75109400#7"/>
    </vehicle>
    <vehicle id="122" type="passenger" depart="61.00" departLane="best">
        <route edges="73255133"/>
    </vehicle>
    <vehicle id="123" type="passenger" depart="61.50" departLane="best">
        <route edges="27082629#1 75201454#5 27078417 75201453 73255133 75112472#0 75112472#1 75112472#2 73255164#0 73255164#1 -446372799#1 446372799#1"/>
    </vehicle>
    <vehicle id="124" type="passenger" depart="62.00" departLane="best">
        <route edges="28408742#2 28408742#3 75193811#2 74709049 431340128 74433840#0 74433840#1 142497264 75112493 74516068#0"/>
    </vehicle>
    <vehicle id="125" type="passenger" depart="62.50" departLane="best">
        <route edges="75739345#4 75739345#5 75739345#6 431340101#0 431340101#1 431340101#2 27082629#0 27082629#1 27082629#2 27053791#1 27053791#2"/>
    </vehicle>
    <vehicle id="126" type="passenger" depart="63.00" departLane="best">
        <route edges="27082604#1 27082604#2 27082604#3 -265322458#0 27082628#0 27082628#1 121815296#0 121815296#1 121815296#2"/>
    </vehicle>
    <vehicle id="127" type="passenger" depart="63.50" departLane="best">
        <route edges="27083325#1 27083325#2 75201454#1 75201454#2 75201454#3 75201454#4 75201454#5 27078417 75201453 73255133 75112472#0 75112472#1 75112472#2 73255164#0 73255164#1 27122600#0 27122600#1 431340101#0"/>
    </vehicle>
    <vehicle id="128" type="passenger" depart="64.00" departLane="best">
        <route edges="74516072#0 75251438#3 73255133 75112472#0 75112472#1 75112472#2 73255164#0 73255164#1 -446372799#1 -446372799#0 27053171"/>
    </vehicle>
    <vehicle id="129" type="passenger" depart="64.50" departLane="best">
        <route edges="27082628#2 265322458#0 265322458#1 75262974#2 75109405 75201473 75739347#0 75739347#1"/>
    </vehicle>
    <vehicle id="130" type="passenger" depart="65.00" departLane="best">
        <route edges="75201454#3"/>
    </vehicle>
    <vehicle id="131" type="passenger" depart="65.50" departLane="best">
        <route edges="28408742#4 74724938#1 27083325#0 27083325#1 27083325#2"/>
    </vehicle>
    <vehicle id="132" type="passenger" depart="66.00" departLane="best">
        <route edges="27082604#4"/>
    </vehicle>
    <vehicle id="133" type="passenger" depart="66.50" departLane="best">
        <route edges="27053786#0 27053786#1 27053786#2 74709049 431340128 27082629#0 27082629#1 27082629#2 27053791#1 27053791#2 74433809#2"/>
    </vehicle>
    <vehicle id="134" type="passenger" depart="67.00" departLane="best">
        <route edges="75251438#3 73255201 27083324#0 27082629#1 27082629#2 27082629#3 27082628#1"/>
    </vehicle>
    <vehicle id="135" type="passenger" depart="67.50" departLane="best">
        <route edges="75415229#1 75114130 73255164#0 73255164#1 -446372799#1 -446372799#0 446372799#0"/>
    </vehicle>
    <vehicle id="137" type="passenger" depart="68.50" departLane="best">
        <route edges="75109404 27082604#3 265322458#1 75262974#2 75109405 75201453 73255201 27082604#1"/>
    </vehicle>
    <vehicle id="138" type="passenger" depart="69.00" departLane="best">
        <route edges="142496491 74516082#0 74516082#1 74516082#2 74516082#3 -265322458#4 -265322458#3 -265322458#2 -265322458#1 -265322458#0 27082628#0 27082628#1 121815296#0 27082625#0 27082625#1 27082625#2 27082625#3"/>
    </vehicle>
    <vehicle id="139" type="passenger" depart="69.50" departLane="best">
        <route edges="27082629#1 75201454#5 27078417 75201473 75739347#0"/>
    </vehicle>
    <vehicle id="140" type="passenger" depart="70.00" departLane="best">
        <route edges="-446372799#0 446372799#0 446372799#1 27122600#0 27122600#1 431340101#0 431340101#1 431340101#2 27082629#0 27082629#1 27082629#2 27082629#3 27082628#1 27082628#2 265322458#0 265322458#1 265322458#2 -265322458#2"/>
    </vehicle>
    <vehicle id="141" type="passenger" depart="70.50" departLane="best">
        <route edges="75112472#0 75112472#1 75112472#2 73255164#0 73255164#1 27122600#0 27122600#1 431340101#0 431340101#1 431340101#2 27082629#0 27083324#1 75042825 75359304#0 75359304#1"/>
    </vehicle>
    <vehicle id="142" type="passenger" depart="71.00" departLane="best">
        <route edges="75109400#5 75109400#6 75109400#7 75109400#8 75109405 75201453 73255133 75112472#0 75112472#1 75112472#2 27052071#0 27052069#1 74371262#1"/>
    </vehicle>
    <vehicle id="143" type="passenger" depart="71.50" departLane="best">
        <route edges="75251438#1 75251438#2 75251438#3 73255133 75112472#0 75112472#1 75112472#2 73255164#0 73255164#1 27122600#0 27122600#1 265314124 142497496#0 142497496#1 75042822#0 75042822#1 27639510"/>
    </vehicle>
    <vehicle id="144" type="passenger" depart="72.00" departLane="best">
        <route edges="73255133 75112472#0 75112472#1 75112472#2 73255164#0 73255164#1 27122600#0 27122600#1 265314124 142497496#0 142497496#1 75042822#0 75042822#1 27639510 27639507#0 27639507#1"/>
    </vehicle>
    <vehicle id="145" type="passenger" depart="72.50" departLane="best">
        <route edges="74709011 27053786#0 27053786#1 27053786#2 74709049 74433785 142497496#0 142497496#1 75042822#0 75042822#1 75042822#2 75042822#3 27053171 75096252#0 75744490#1 27056027#0"/>
    </vehicle>
    <vehicle id="147" type="passenger" depart="73.50" departLane="best">
        <route edges="73255164#1 27122600#0 27122600#1 431340101#0 431340101#1 431340101#2 27082629#0 27082629#1 27082629#2 27053791#1 27053791#2"/>
    </vehicle>
    <vehicle id="148" type="passenger" depart="74.00" departLane="best">
        <route edges="74433809#1 74433809#2 74433809#3 75042826 431340128 74433840#0"/>
    </vehicle>
    <vehicle id="149" type="passenger" depart="74.50" departLane="best">
        <route edges="-265322458#1 -265322458#0 27082628#0 27082628#1 121815296#0 27082625#0 27082625#1 27082625#2 74433809#1 74433809#2 74433809#3 75042825 75359304#0 75359304#1 75359304#2"/>
    </vehicle>
    <vehicle id="150" type="passenger" depart="75.00" departLane="best">
        <route edges="75112472#2 27052071#0 27052071#1"/>
    </vehicle>
    <vehicle id="151" type="passenger" depart="75.50" departLane="best">
        <route edges="75739345#4 75739345#5 75739345#6 431340101#0 431340101#1 431340101#2 27082629#0 27082629#1 27082629#2 27053791#1 27053791#2 27053791#3"/>
    </vehicle>
    <vehicle id="152" type="passenger" depart="76.00" departLane="best">
        <route edges="74516082#3 -265322458#4 -265322458#3 -265322458#2 75262974#2 75109405 75201473 75739347#0"/>
    </vehicle>
    <vehicle id="154" type="passenger" depart="77.00" departLane="best">
        <route edges="27639510 27639507#0 27639509 75042822#1 75042822#2 75042822#3 27053171 75096174 74371262#0 74371262#1 27082600 74516072#0"/>
    </vehicle>
    <vehicle id="155" type="passenger" depart="77.50" departLane="best">
        <route edges="27053791#1 27053791#2 74433809#2 74433809#3 75042825 75356673#0 75356673#1"/>
    </vehicle>
    <vehicle id="156" type="passenger" depart="78.00" departLane="best">
        <route edges="75109400#5 75109400#6 75109400#7 75109400#8 75109405 75201453 73255133 75112472#0 75112472#1 75112472#2 73255164#0 73255164#1 27122600#0 27122600#1 265314124 73255184 27053786#0 27053786#1 27053786#2 74709025"/>
    </vehicle>
    <vehicle id="157" type="passenger" depart="78.50" departLane="best">
        <route edges="27083325#0 75193811#1 75193811#2 74709025 75359304#0"/>
    </vehicle>
    <vehicle id="158" type="passenger" depart="79.00" departLane="best">
        <route edges="-265322458#3 -265322458#2 75262974#2 75109405 75201453 73255133 75112472#0 75112472#1 75112472#2 73255164#0 73255164#1 -446372799#1 446372799#1"/>
    </vehicle>
    <vehicle id="159" type="passenger" depart="79.50" departLane="best">
        <route edges="74516072#0 74516072#1 75739347#0 75739347#1 -265322458#2 75262974#2"/>
    </vehicle>
    <vehicle id="160" type="passenger" depart="80.00" departLane="best">
        <route edges="75114130 73255164#0 73255164#1 27122600#0 27122600#1 431340101#0 431340101#1 431340101#2 27082629#0 27082629#1 27082629#2 27053791#1 27053791#2 74433809#2 74433809#3"/>
    </vehicle>
    <vehicle id="161" type="passenger" depart="80.50" departLane="best">
        <route edges="75744490#0 75744490#1 160464620 446372799#0 446372799#1 27122600#0 27122600#1 431340101#0 431340101#1"/>
    </vehicle>
    <vehicle id="162" type="passenger" depart="81.00" departLane="best">
        <route edges="160464618 160464620 446372799#0 27052069#0 27052069#1 74371262#1 27082600 74516068#0 74516068#1 74516082#0"/>
    </vehicle>
    <vehicle id="163" type="passenger" depart="81.50" departLane="best">
        <route edges="27486761 27053791#2 74433809#2 75201454#4 75201454#5 27078417 75201453 73255201 27083324#0"/>
    </vehicle>
    <vehicle id="164" type="passenger" depart="82.00" departLane="best">
        <route edges="75739345#5 75739345#6 431340101#0 431340101#1 431340101#2 27082629#0 27082629#1 27082629#2 27082629#3 27082628#1 27082628#2 265322458#0 265322458#1 265322458#2 265322458#3 265322458#4 74516082#4"/>
    </vehicle>
    <vehicle id="165" type="passenger" depart="82.50" departLane="best">
        <route edges="74433809#0 74433809#1 74433809#2 75201454#4 27082629#2 27082629#3"/>
    </vehicle>
    <vehicle id="166" type="passenger" depart="83.00" departLane="best">
        <route edges="75359304#0 28408742#3 75193811#2 74709049 431340128 27082629#0 27082629#1 75201454#5 27078417 75201473 75739328#0"/>
    </vehicle>
    <vehicle id="167" type="passenger" depart="83.50" departLane="best">
        <route edges="431340128 27082629#0 27082629#1 75201454#5 27078417 75201473 75739328#0 75739328#1"/>
    </vehicle>
    <vehicle id="168" type="passenger" depart="84.00" departLane="best">