<additional>
    <tlLogic id="1031440966" offset="0" programID="1" type="static">
        <phase duration="86" state="GgGg" />
        <phase duration="4" state="yyyy" />
    </tlLogic>
    <tlLogic id="1031441085" offset="0" programID="1" type="static">
        <phase duration="32" state="GGgrrrrGgg" />
        <phase duration="7" state="yygrrrrygg" />
        <phase duration="6" state="rrGrrrrrGG" />
        <phase duration="7" state="rryrrrrryy" />
        <phase duration="31" state="rrrGGGGrrr" />
        <phase duration="7" state="rrryyyyrrr" />
    </tlLogic>
    <tlLogic id="1031441285" offset="0" programID="1" type="static">
        <phase duration="86" state="GgGg" />
        <phase duration="4" state="yyyy" />
    </tlLogic>
    <tlLogic id="1031441690" offset="0" programID="1" type="static">
        <phase duration="32" state="GggGGgrrrr" />
        <phase duration="7" state="yggyygrrrr" />
        <phase duration="6" state="rGGrrGrrrr" />
        <phase duration="7" state="ryyrryrrrr" />
        <phase duration="31" state="rrrrrrGGGG" />
        <phase duration="7" state="rrrrrryyyy" />
    </tlLogic>
    <tlLogic id="1031441843" offset="0" programID="1" type="static">
        <phase duration="31" state="GGggrrrrGGggrrrr" />
        <phase duration="4" state="yyggrrrryyggrrrr" />
        <phase duration="6" state="rrGGrrrrrrGGrrrr" />
        <phase duration="4" state="rryyrrrrrryyrrrr" />
        <phase duration="31" state="rrrrGGggrrrrGGgg" />
        <phase duration="4" state="rrrryyggrrrryygg" />
        <phase duration="6" state="rrrrrrGGrrrrrrGG" />
        <phase duration="4" state="rrrrrryyrrrrrryy" />
    </tlLogic>
    <tlLogic id="1031441857" offset="0" programID="1" type="static">
        <phase duration="31" state="GGggrrrrGGggrrrr" />
        <phase duration="4" state="yyggrrrryyggrrrr" />
        <phase duration="6" state="rrGGrrrrrrGGrrrr" />
        <phase duration="4" state="rryyrrrrrryyrrrr" />
        <phase duration="31" state="rrrrGGggrrrrGGgg" />
        <phase duration="4" state="rrrryyggrrrryygg" />
        <phase duration="6" state="rrrrrrGGrrrrrrGG" />
        <phase duration="4" state="rrrrrryyrrrrrryy" /> 
    </tlLogic>
    <tlLogic id="1069364851" offset="0" programID="1" type="static">
        <phase duration="83" state="G" />
        <phase duration="7" state="y" />
    </tlLogic>
    <tlLogic id="1069364854" offset="0" programID="1" type="static">
        <phase duration="35" state="rrrrrGggGGg" />
        <phase duration="5" state="rrrrryggyyg" />
        <phase duration="6" state="rrrrrrGGrrG" />
        <phase duration="5" state="rrrrrryyrry" />
        <phase duration="34" state="GGGGGrrrrrr" />
        <phase duration="5" state="yyyyyrrrrrr" />
    </tlLogic>
    <tlLogic id="1069364931" offset="0" programID="1" type="static">
        <phase duration="86" state="GgGg" />
        <phase duration="4" state="yyyy" />
    </tlLogic>
    <tlLogic id="1069364967" offset="0" programID="1" type="static">
        <phase duration="40" state="GGGGrrr" />
        <phase duration="5" state="yyyyrrr" />
        <phase duration="40" state="rrrrGGG" />
        <phase duration="5" state="rrrryyy" />
    </tlLogic>
    <tlLogic id="1069365087" offset="0" programID="1" type="static">
        <phase duration="32" state="rrrrrGggGGg" />
        <phase duration="7" state="rrrrryggyyg" />
        <phase duration="6" state="rrrrrrGGrrG" />
        <phase duration="7" state="rrrrrryyrry" />
        <phase duration="31" state="GGGGGrrrrrr" />
        <phase duration="7" state="yyyyyrrrrrr" />
    </tlLogic>
    <tlLogic id="1069365093" offset="0" programID="1" type="static">
        <phase duration="40" state="GGGGrr" />
        <phase duration="5" state="yyyyrr" />
        <phase duration="40" state="rrrrGG" />
        <phase duration="5" state="rrrryy" />
    </tlLogic>
    <tlLogic id="1069365138" offset="0" programID="1" type="static">
        <phase duration="38" state="gG" />
        <phase duration="7" state="yy" />
        <phase duration="38" state="rG" />
        <phase duration="7" state="ry" />
    </tlLogic>
    <tlLogic id="1069365148" offset="0" programID="1" type="static">
        <phase duration="32" state="rrrGggGGg" />
        <phase duration="7" state="rrryggyyg" />
        <phase duration="6" state="rrrrGGrrG" />
        <phase duration="7" state="rrrryyrry" />
        <phase duration="31" state="GGGrrrrrr" />
        <phase duration="7" state="yyyrrrrrr" />
    </tlLogic>
    <tlLogic id="1069365223" offset="0" programID="1" type="static">
        <phase duration="32" state="GggGGgrrr" />
        <phase duration="7" state="yggyygrrr" />
        <phase duration="6" state="rGGrrGrrr" />
        <phase duration="7" state="ryyrryrrr" />
        <phase duration="31" state="rrrrrrGGG" />
        <phase duration="7" state="rrrrrryyy" />
    </tlLogic>
    <tlLogic id="1069365254" offset="0" programID="1" type="static">
        <phase duration="86" state="G" />
        <phase duration="4" state="y" />
    </tlLogic>
    <tlLogic id="1069365270" offset="0" programID="1" type="static">
        <phase duration="36" state="GggGGgrrr" />
        <phase duration="4" state="yggyygrrr" />
        <phase duration="6" state="rGGrrGrrr" />
        <phase duration="4" state="ryyrryrrr" />
        <phase duration="36" state="rrrrrrGGG" />
        <phase duration="4" state="rrrrrryyy" />
    </tlLogic>
    <tlLogic id="1069365412" offset="0" programID="1" type="static">
        <phase duration="41" state="GGrr" />
        <phase duration="4" state="yyrr" />
        <phase duration="41" state="rrGG" />
        <phase duration="4" state="rryy" />
    </tlLogic>
    <tlLogic id="1069365532" offset="0" programID="1" type="static">
        <phase duration="36" state="rrrGGgGgg" />
        <phase duration="4" state="rrryygygg" />
        <phase duration="6" state="rrrrrGrGG" />
        <phase duration="4" state="rrrrryryy" />
        <phase duration="36" state="GGgGrrrrr" />
        <phase duration="4" state="yyyyrrrrr" />
    </tlLogic>
    <tlLogic id="1069365602" offset="0" programID="1" type="static">
        <phase duration="41" state="GGrr" />
        <phase duration="4" state="yyrr" />
        <phase duration="41" state="rrGG" />
        <phase duration="4" state="rryy" />
    </tlLogic>
    <tlLogic id="1069365606" offset="0" programID="1" type="static">
        <phase duration="25" state="GGggrrrrGGggrrrr" />
        <phase duration="7" state="yyggrrrryyggrrrr" />
        <phase duration="6" state="rrGGrrrrrrGGrrrr" />
        <phase duration="7" state="rryyrrrrrryyrrrr" />
        <phase duration="25" state="rrrrGGggrrrrGGgg" />
        <phase duration="7" state="rrrryyggrrrryygg" />
        <phase duration="6" state="rrrrrrGGrrrrrrGG" />
        <phase duration="7" state="rrrrrryyrrrrrryy" /> 
    </tlLogic>
    <tlLogic id="1069365670" offset="0" programID="1" type="static">
        <phase duration="40" state="GgrrGg" />
        <phase duration="5" state="yyrryy" />
        <phase duration="40" state="rrGGrr" />
        <phase duration="5" state="rryyrr" />
    </tlLogic>
    <tlLogic id="1093480689" offset="0" programID="1" type="static">
        <phase duration="36" state="GggGGgrrr" />
        <phase duration="4" state="yggyygrrr" />
        <phase duration="6" state="rGGrrGrrr" />
        <phase duration="4" state="ryyrryrrr" />
        <phase duration="36" state="rrrrrrGGG" />
        <phase duration="4" state="rrrrrryyy" />
    </tlLogic>
    <tlLogic id="1274128455" offset="0" programID="1" type="static">
        <phase duration="86" state="GgGg" />
        <phase duration="4" state="yyyy" />
    </tlLogic>
    <tlLogic id="2145146069" offset="0" programID="1" type="static">
        <phase duration="36" state="GGgrrrGgg" />
        <phase duration="4" state="yygrrrygg" />
        <phase duration="6" state="rrGrrrrGG" />
        <phase duration="4" state="rryrrrryy" />
        <phase duration="36" state="rrrGGGrrr" />
        <phase duration="4" state="rrryyyrrr" />
    </tlLogic>
    <tlLogic id="2177917497" offset="0" programID="1" type="static">
        <phase duration="86" state="G" />
        <phase duration="4" state="y" />
    </tlLogic>
    <tlLogic id="2224196809" offset="0" programID="1" type="static">
        <phase duration="83" state="G" />
        <phase duration="7" state="y" />
    </tlLogic>
    <tlLogic id="2306420285" offset="0" programID="1" type="static">
        <phase duration="32" state="GggrrrGGg" />
        <phase duration="7" state="yggrrryyg" />
        <phase duration="6" state="rGGrrrrrG" />
        <phase duration="7" state="ryyrrrrry" />
        <phase duration="31" state="rrrGGgGrr" />
        <phase duration="7" state="rrryyyyrr" />
    </tlLogic>
    <tlLogic id="2408412534" offset="0" programID="1" type="static">
        <phase duration="31" state="rrrrGGggrrrrGGgg" />
        <phase duration="4" state="rrrryyggrrrryygg" />
        <phase duration="6" state="rrrrrrGGrrrrrrGG" />
        <phase duration="4" state="rrrrrryyrrrrrryy" />
        <phase duration="31" state="GGggrrrrGGggrrrr" />
        <phase duration="4" state="yyggrrrryyggrrrr" />
        <phase duration="6" state="rrGGrrrrrrGGrrrr" />
        <phase duration="4" state="rryyrrrrrryyrrrr" />
    </tlLogic>
    <tlLogic id="2408412536" offset="0" programID="1" type="static">
        <phase duration="41" state="GGrr" />
        <phase duration="4" state="yyrr" />
        <phase duration="41" state="rrGG" />
        <phase duration="4" state="rryy" />
    </tlLogic>
    <tlLogic id="2408497626" offset="0" programID="1" type="static">
        <phase duration="31" state="rrrrGGggrrrrGGgg" />
        <phase duration="4" state="rrrryyggrrrryygg" />
        <phase duration="6" state="rrrrrrGGrrrrrrGG" />
        <phase duration="4" state="rrrrrryyrrrrrryy" />
        <phase duration="31" state="GGggrrrrGGggrrrr" />
        <phase duration="4" state="yyggrrrryyggrrrr" />
        <phase duration="6" state="rrGGrrrrrrGGrrrr" />
        <phase duration="4" state="rryyrrrrrryyrrrr" /> 
    </tlLogic>
    <tlLogic id="2536001831" offset="0" programID="1" type="static">
        <phase duration="31" state="rrrrGGggrrrrGGgg" />
        <phase duration="4" state="rrrryyggrrrryygg" />
        <phase duration="6" state="rrrrrrGGrrrrrrGG" />
        <phase duration="4" state="rrrrrryyrrrrrryy" />
        <phase duration="31" state="GGggrrrrGGggrrrr" />
        <phase duration="4" state="yyggrrrryyggrrrr" />
        <phase duration="6" state="rrGGrrrrrrGGrrrr" />
        <phase duration="4" state="rryyrrrrrryyrrrr" />
    </tlLogic>
    <tlLogic id="2536001834" offset="0" programID="1" type="static">
        <phase duration="31" state="GGggrrrrGGggrrrr" />
        <phase duration="4" state="yyggrrrryyggrrrr" />
        <phase duration="6" state="rrGGrrrrrrGGrrrr" />
        <phase duration="4" state="rryyrrrrrryyrrrr" />
        <phase duration="31" state="rrrrGGggrrrrGGgg" />
        <phase duration="4" state="rrrryyggrrrryygg" />
        <phase duration="6" state="rrrrrrGGrrrrrrGG" />
        <phase duration="4" state="rrrrrryyrrrrrryy" />
    </tlLogic>
    <tlLogic id="254531033" offset="0" programID="1" type="static">
        <phase duration="31" state="rrrrGGggrrrrGGgg" />
        <phase duration="4" state="rrrryyggrrrryygg" />
        <phase duration="6" state="rrrrrrGGrrrrrrGG" />
        <phase duration="4" state="rrrrrryyrrrrrryy" />
        <phase duration="31" state="GGggrrrrGGggrrrr" />
        <phase duration="4" state="yyggrrrryyggrrrr" />
        <phase duration="6" state="rrGGrrrrrrGGrrrr" />
        <phase duration="4" state="rryyrrrrrryyrrrr" />
    </tlLogic>
    <tlLogic id="254581852" offset="0" programID="1" type="static">
        <phase duration="25" state="rrrrGGggrrrrGGgg" />
        <phase duration="7" state="rrrryyggrrrryygg" />
        <phase duration="6" state="rrrrrrGGrrrrrrGG" />
        <phase duration="7" state="rrrrrryyrrrrrryy" />
        <phase duration="25" state="GGggrrrrGGggrrrr" />
        <phase duration="7" state="yyggrrrryyggrrrr" />
        <phase duration="6" state="rrGGrrrrrrGGrrrr" />
        <phase duration="7" state="rryyrrrrrryyrrrr" />
    </tlLogic>
    <tlLogic id="254581854" offset="0" programID="1" type="static">
        <phase duration="32" state="GGgrrrrrGgg" />
        <phase duration="7" state="yygrrrrrygg" />
        <phase duration="6" state="rrGrrrrrrGG" />
        <phase duration="7" state="rryrrrrrryy" />
        <phase duration="31" state="rrrGGGGGrrr" />
        <phase duration="7" state="rrryyyyyrrr" />
    </tlLogic>
    <tlLogic id="254581855" offset="0" programID="1" type="static">
        <phase duration="32" state="rrrrGGggg" />
        <phase duration="7" state="rrrryyggg" />
        <phase duration="6" state="rrrrrrGGG" />
        <phase duration="7" state="rrrrrryyy" />
        <phase duration="31" state="GGGGrrrrr" />
        <phase duration="7" state="yyyyrrrrr" />
    </tlLogic>
    <tlLogic id="254585719" offset="0" programID="1" type="static">
        <phase duration="35" state="GGgrrrrrGgg" />
        <phase duration="5" state="yygrrrrrygg" />
        <phase duration="6" state="rrGrrrrrrGG" />
        <phase duration="5" state="rryrrrrrryy" />
        <phase duration="34" state="rrrGGGGGrrr" />
        <phase duration="5" state="rrryyyyyrrr" /> 
    </tlLogic>
    <tlLogic id="255026270" offset="0" programID="1" type="static">
        <phase duration="25" state="GGggrrrrGGggrrrr" />
        <phase duration="7" state="yyggrrrryyggrrrr" />
        <phase duration="6" state="rrGGrrrrrrGGrrrr" />
        <phase duration="7" state="rryyrrrrrryyrrrr" />
        <phase duration="25" state="rrrrGGggrrrrGGgg" />
        <phase duration="7" state="rrrryyggrrrryygg" />
        <phase duration="6" state="rrrrrrGGrrrrrrGG" />
        <phase duration="7" state="rrrrrryyrrrrrryy" />
    </tlLogic>
    <tlLogic id="255376591" offset="0" programID="1" type="static">
        <phase duration="38" state="GgGr" />
        <phase duration="7" state="yyyr" />
        <phase duration="38" state="GrGg" />
        <phase duration="7" state="yryy" />
    </tlLogic>
    <tlLogic id="255378181" offset="0" programID="1" type="static">
        <phase duration="36" state="rrrGGgGgg" />
        <phase duration="4" state="rrryygygg" />
        <phase duration="6" state="rrrrrGrGG" />
        <phase duration="4" state="rrrrryryy" />
        <phase duration="36" state="GGgGrrrrr" />
        <phase duration="4" state="yyyyrrrrr" />
    </tlLogic>
    <tlLogic id="255378183" offset="0" programID="1" type="static">
        <phase duration="36" state="GggrrrGGg" />
        <phase duration="4" state="yggrrryyg" />
        <phase duration="6" state="rGGrrrrrG" />
        <phase duration="4" state="ryyrrrrry" />
        <phase duration="36" state="rrrGGgGrr" />
        <phase duration="4" state="rrryyyyrr" />
    </tlLogic>
    <tlLogic id="256115979" offset="0" programID="1" type="static">
        <phase duration="86" state="GgGg" />
        <phase duration="4" state="yyyy" />
    </tlLogic>
    <tlLogic id="256456400" offset="0" programID="1" type="static">
        <phase duration="32" state="GggGGgrrrr" />
        <phase duration="7" state="yggyygrrrr" />
        <phase duration="6" state="rGGrrGrrrr" />
        <phase duration="7" state="ryyrryrrrr" />
        <phase duration="31" state="rrrrrrGGGG" />
        <phase duration="7" state="rrrrrryyyy" />
    </tlLogic>
    <tlLogic id="256456406" offset="0" programID="1" type="static">
        <phase duration="25" state="rrrrGGggrrrrGGgg" />
        <phase duration="7" state="rrrryyggrrrryygg" />
        <phase duration="6" state="rrrrrrGGrrrrrrGG" />
        <phase duration="7" state="rrrrrryyrrrrrryy" />
        <phase duration="25" state="GGggrrrrGGggrrrr" />
        <phase duration="7" state="yyggrrrryyggrrrr" />
        <phase duration="6" state="rrGGrrrrrrGGrrrr" />
        <phase duration="7" state="rryyrrrrrryyrrrr" />
    </tlLogic>
    <tlLogic id="256456715" offset="0" programID="1" type="static">
        <phase duration="38" state="GgGr" />
        <phase duration="7" state="yyyr" />
        <phase duration="38" state="GrGg" />
        <phase duration="7" state="yryy" />
    </tlLogic>
    <tlLogic id="256456773" offset="0" programID="1" type="static">
        <phase duration="31" state="GGggrrrrGGggrrrr" />
        <phase duration="4" state="yyggrrrryyggrrrr" />
        <phase duration="6" state="rrGGrrrrrrGGrrrr" />
        <phase duration="4" state="rryyrrrrrryyrrrr" />
        <phase duration="31" state="rrrrGGggrrrrGGgg" />
        <phase duration="4" state="rrrryyggrrrryygg" />
        <phase duration="6" state="rrrrrrGGrrrrrrGG" />
        <phase duration="4" state="rrrrrryyrrrrrryy" />   
    </tlLogic>
    <tlLogic id="256725847" offset="0" programID="1" type="static">
        <phase duration="35" state="GGgrrrrrGgg" />
        <phase duration="5" state="yygrrrrrygg" />
        <phase duration="6" state="rrGrrrrrrGG" />
        <phase duration="5" state="rryrrrrrryy" />
        <phase duration="34" state="rrrGGGGGrrr" />
        <phase duration="5" state="rrryyyyyrrr" />
    </tlLogic>
    <tlLogic id="257929386" offset="0" programID="1" type="static">
        <phase duration="32" state="GGggrrrrGGgg" />
        <phase duration="7" state="yyggrrrryygg" />
        <phase duration="6" state="rrGGrrrrrrGG" />
        <phase duration="7" state="rryyrrrrrryy" />
        <phase duration="31" state="rrrrGGGgGrrr" />
        <phase duration="7" state="rrrryyyyyrrr" />
    </tlLogic>
    <tlLogic id="258772629" offset="0" programID="1" type="static">
        <phase duration="31" state="rrrrGGggrrrrGGgg" />
        <phase duration="4" state="rrrryyggrrrryygg" />
        <phase duration="6" state="rrrrrrGGrrrrrrGG" />
        <phase duration="4" state="rrrrrryyrrrrrryy" />
        <phase duration="31" state="GGggrrrrGGggrrrr" />
        <phase duration="4" state="yyggrrrryyggrrrr" />
        <phase duration="6" state="rrGGrrrrrrGGrrrr" />
        <phase duration="4" state="rryyrrrrrryyrrrr" />
    </tlLogic>
    <tlLogic id="258772630" offset="0" programID="1" type="static">
        <phase duration="32" state="GggGGgrrrr" />
        <phase duration="7" state="yggyygrrrr" />
        <phase duration="6" state="rGGrrGrrrr" />
        <phase duration="7" state="ryyrryrrrr" />
        <phase duration="31" state="rrrrrrGGGG" />
        <phase duration="7" state="rrrrrryyyy" />
    </tlLogic>
    <tlLogic id="258845414" offset="0" programID="1" type="static">
        <phase duration="38" state="GGGGrrr" />
        <phase duration="7" state="yyyyrrr" />
        <phase duration="38" state="rrrrGGG" />
        <phase duration="7" state="rrrryyy" />
    </tlLogic>
    <tlLogic id="259974875" offset="0" programID="1" type="static">
        <phase duration="38" state="GGrrr" />
        <phase duration="7" state="yyrrr" />
        <phase duration="38" state="rrGGG" />
        <phase duration="7" state="rryyy" />
    </tlLogic>
    <tlLogic id="259974960" offset="0" programID="1" type="static">
        <phase duration="25" state="rrrrGGggrrrrGGgg" />
        <phase duration="7" state="rrrryyggrrrryygg" />
        <phase duration="6" state="rrrrrrGGrrrrrrGG" />
        <phase duration="7" state="rrrrrryyrrrrrryy" />
        <phase duration="25" state="GGggrrrrGGggrrrr" />
        <phase duration="7" state="yyggrrrryyggrrrr" />
        <phase duration="6" state="rrGGrrrrrrGGrrrr" />
        <phase duration="7" state="rryyrrrrrryyrrrr" />
    </tlLogic>
    <tlLogic id="259975052" offset="0" programID="1" type="static">
        <phase duration="31" state="GGggrrrrGGggrrrr" />
        <phase duration="4" state="yyggrrrryyggrrrr" />
        <phase duration="6" state="rrGGrrrrrrGGrrrr" />
        <phase duration="4" state="rryyrrrrrryyrrrr" />
        <phase duration="31" state="rrrrGGggrrrrGGgg" />
        <phase duration="4" state="rrrryyggrrrryygg" />
        <phase duration="6" state="rrrrrrGGrrrrrrGG" />
        <phase duration="4" state="rrrrrryyrrrrrryy" />  
    </tlLogic>
    <tlLogic id="259975053" offset="0" programID="1" type="static">
        <phase duration="83" state="GgGg" />
        <phase duration="7" state="yyyy" />
    </tlLogic>
    <tlLogic id="259987575" offset="0" programID="1" type="static">
        <phase duration="31" state="rrrrGGggrrrrGGgg" />
        <phase duration="4" state="rrrryyggrrrryygg" />
        <phase duration="6" state="rrrrrrGGrrrrrrGG" />
        <phase duration="4" state="rrrrrryyrrrrrryy" />
        <phase duration="31" state="GGggrrrrGGggrrrr" />
        <phase duration="4" state="yyggrrrryyggrrrr" />
        <phase duration="6" state="rrGGrrrrrrGGrrrr" />
        <phase duration="4" state="rryyrrrrrryyrrrr" />
    </tlLogic>
    <tlLogic id="260281837" offset="0" programID="1" type="static">
        <phase duration="35" state="GGgrrrrrGgg" />
        <phase duration="5" state="yygrrrrrygg" />
        <phase duration="6" state="rrGrrrrrrGG" />
        <phase duration="5" state="rryrrrrrryy" />
        <phase duration="34" state="rrrGGGGGrrr" />
        <phase duration="5" state="rrryyyyyrrr" />
    </tlLogic>
    <tlLogic id="261601075" offset="0" programID="1" type="static">
        <phase duration="86" state="G" />
        <phase duration="4" state="y" />
    </tlLogic>
    <tlLogic id="261601090" offset="0" programID="1" type="static">
        <phase duration="31" state="GGggrrrrGGggrrrr" />
        <phase duration="4" state="yyggrrrryyggrrrr" />
        <phase duration="6" state="rrGGrrrrrrGGrrrr" />
        <phase duration="4" state="rryyrrrrrryyrrrr" />
        <phase duration="31" state="rrrrGGggrrrrGGgg" />
        <phase duration="4" state="rrrryyggrrrryygg" />
        <phase duration="6" state="rrrrrrGGrrrrrrGG" />
        <phase duration="4" state="rrrrrryyrrrrrryy" />
    </tlLogic>
    <tlLogic id="262996119" offset="0" programID="1" type="static">
        <phase duration="32" state="GggGGgrrr" />
        <phase duration="7" state="yggyygrrr" />
        <phase duration="6" state="rGGrrGrrr" />
        <phase duration="7" state="ryyrryrrr" />
        <phase duration="31" state="rrrrrrGGG" />
        <phase duration="7" state="rrrrrryyy" />
    </tlLogic>
    <tlLogic id="265599709" offset="0" programID="1" type="static">
        <phase duration="31" state="rrrrGGggrrrrGGgg" />
        <phase duration="4" state="rrrryyggrrrryygg" />
        <phase duration="6" state="rrrrrrGGrrrrrrGG" />
        <phase duration="4" state="rrrrrryyrrrrrryy" />
        <phase duration="31" state="GGggrrrrGGggrrrr" />
        <phase duration="4" state="yyggrrrryyggrrrr" />
        <phase duration="6" state="rrGGrrrrrrGGrrrr" />
        <phase duration="4" state="rryyrrrrrryyrrrr" />
    </tlLogic>
    <tlLogic id="265599714" offset="0" programID="1" type="static">
        <phase duration="25" state="GGggrrrrGGggrrrr" />
        <phase duration="7" state="yyggrrrryyggrrrr" />
        <phase duration="6" state="rrGGrrrrrrGGrrrr" />
        <phase duration="7" state="rryyrrrrrryyrrrr" />
        <phase duration="25" state="rrrrGGggrrrrGGgg" />
        <phase duration="7" state="rrrryyggrrrryygg" />
        <phase duration="6" state="rrrrrrGGrrrrrrGG" />
        <phase duration="7" state="rrrrrryyrrrrrryy" /> 
    </tlLogic>
    <tlLogic id="2708360447" offset="0" programID="1" type="static">
        <phase duration="86" state="G" />
        <phase duration="4" state="y" />
    </tlLogic>
    <tlLogic id="271829728" offset="0" programID="1" type="static">
        <phase duration="38" state="GgGr" />
        <phase duration="7" state="yyyr" />
        <phase duration="38" state="GrGg" />
        <phase duration="7" state="yryy" />
    </tlLogic>
    <tlLogic id="271829737" offset="0" programID="1" type="static">
        <phase duration="31" state="rrrrGGggrrrrGGgg" />
        <phase duration="4" state="rrrryyggrrrryygg" />
        <phase duration="6" state="rrrrrrGGrrrrrrGG" />
        <phase duration="4" state="rrrrrryyrrrrrryy" />
        <phase duration="31" state="GGggrrrrGGggrrrr" />
        <phase duration="4" state="yyggrrrryyggrrrr" />
        <phase duration="6" state="rrGGrrrrrrGGrrrr" />
        <phase duration="4" state="rryyrrrrrryyrrrr" />
    </tlLogic>
    <tlLogic id="2753105676" offset="0" programID="1" type="static">
        <phase duration="85" state="GGG" />
        <phase duration="5" state="yyy" />
    </tlLogic>
    <tlLogic id="2753105680" offset="0" programID="1" type="static">
        <phase duration="32" state="GggGGgrrr" />
        <phase duration="7" state="yggyygrrr" />
        <phase duration="6" state="rGGrrGrrr" />
        <phase duration="7" state="ryyrryrrr" />
        <phase duration="31" state="rrrrrrGGG" />
        <phase duration="7" state="rrrrrryyy" />
    </tlLogic>
    <tlLogic id="2753105681" offset="0" programID="1" type="static">
        <phase duration="32" state="GggGGgrrr" />
        <phase duration="7" state="yggyygrrr" />
        <phase duration="6" state="rGGrrGrrr" />
        <phase duration="7" state="ryyrryrrr" />
        <phase duration="31" state="rrrrrrGGG" />
        <phase duration="7" state="rrrrrryyy" />
    </tlLogic>
    <tlLogic id="2753105682" offset="0" programID="1" type="static">
        <phase duration="32" state="rrrGggGGg" />
        <phase duration="7" state="rrryggyyg" />
        <phase duration="6" state="rrrrGGrrG" />
        <phase duration="7" state="rrrryyrry" />
        <phase duration="31" state="GGGrrrrrr" />
        <phase duration="7" state="yyyrrrrrr" />
    </tlLogic>
    <tlLogic id="2753105686" offset="0" programID="1" type="static">
        <phase duration="32" state="GGgrrrGgg" />
        <phase duration="7" state="yygrrrygg" />
        <phase duration="6" state="rrGrrrrGG" />
        <phase duration="7" state="rryrrrryy" />
        <phase duration="31" state="rrrGGGrrr" />
        <phase duration="7" state="rrryyyrrr" />
    </tlLogic>
    <tlLogic id="2753105687" offset="0" programID="1" type="static">
        <phase duration="38" state="GGGGrrr" />
        <phase duration="7" state="yyyyrrr" />
        <phase duration="38" state="rrrrGGG" />
        <phase duration="7" state="rrrryyy" />
    </tlLogic>
    <tlLogic id="276377337" offset="0" programID="1" type="static">
        <phase duration="25" state="GGggrrrrGGggrrrr" />
        <phase duration="7" state="yyggrrrryyggrrrr" />
        <phase duration="6" state="rrGGrrrrrrGGrrrr" />
        <phase duration="7" state="rryyrrrrrryyrrrr" />
        <phase duration="25" state="rrrrGGggrrrrGGgg" />
        <phase duration="7" state="rrrryyggrrrryygg" />
        <phase duration="6" state="rrrrrrGGrrrrrrGG" />
        <phase duration="7" state="rrrrrryyrrrrrryy" /> 
    </tlLogic>
    <tlLogic id="276452387" offset="0" programID="1" type="static">
        <phase duration="38" state="GGGrr" />
        <phase duration="7" state="yyyrr" />
        <phase duration="38" state="rrrGG" />
        <phase duration="7" state="rrryy" />
    </tlLogic>
    <tlLogic id="278701744" offset="0" programID="1" type="static">
        <phase duration="36" state="GGgGggrrr" />
        <phase duration="4" state="yygyggrrr" />
        <phase duration="6" state="rrGrGGrrr" />
        <phase duration="4" state="rryryyrrr" />
        <phase duration="36" state="GrrrrrGGg" />
        <phase duration="4" state="yrrrrryyy" />
    </tlLogic>
    <tlLogic id="278701745" offset="0" programID="1" type="static">
        <phase duration="31" state="rrrrGGggrrrrGGgg" />
        <phase duration="4" state="rrrryyggrrrryygg" />
        <phase duration="6" state="rrrrrrGGrrrrrrGG" />
        <phase duration="4" state="rrrrrryyrrrrrryy" />
        <phase duration="31" state="GGggrrrrGGggrrrr" />
        <phase duration="4" state="yyggrrrryyggrrrr" />
        <phase duration="6" state="rrGGrrrrrrGGrrrr" />
        <phase duration="4" state="rryyrrrrrryyrrrr" />
    </tlLogic>
    <tlLogic id="278701746" offset="0" programID="1" type="static">
        <phase duration="31" state="GGggrrrrGGggrrrr" />
        <phase duration="4" state="yyggrrrryyggrrrr" />
        <phase duration="6" state="rrGGrrrrrrGGrrrr" />
        <phase duration="4" state="rryyrrrrrryyrrrr" />
        <phase duration="31" state="rrrrGGggrrrrGGgg" />
        <phase duration="4" state="rrrryyggrrrryygg" />
        <phase duration="6" state="rrrrrrGGrrrrrrGG" />
        <phase duration="4" state="rrrrrryyrrrrrryy" />
    </tlLogic>
    <tlLogic id="278701747" offset="0" programID="1" type="static">
        <phase duration="35" state="GGgrrrrrGgg" />
        <phase duration="5" state="yygrrrrrygg" />
        <phase duration="6" state="rrGrrrrrrGG" />
        <phase duration="5" state="rryrrrrrryy" />
        <phase duration="34" state="rrrGGGGGrrr" />
        <phase duration="5" state="rrryyyyyrrr" />
    </tlLogic>
    <tlLogic id="278701748" offset="0" programID="1" type="static">
        <phase duration="31" state="GGggrrrrGGggrrrr" />
        <phase duration="4" state="yyggrrrryyggrrrr" />
        <phase duration="6" state="rrGGrrrrrrGGrrrr" />
        <phase duration="4" state="rryyrrrrrryyrrrr" />
        <phase duration="31" state="rrrrGGggrrrrGGgg" />
        <phase duration="4" state="rrrryyggrrrryygg" />
        <phase duration="6" state="rrrrrrGGrrrrrrGG" />
        <phase duration="4" state="rrrrrryyrrrrrryy" />
    </tlLogic>
    <tlLogic id="278942780" offset="0" programID="1" type="static">
        <phase duration="32" state="GggGGgrrr" />
        <phase duration="7" state="yggyygrrr" />
        <phase duration="6" state="rGGrrGrrr" />
        <phase duration="7" state="ryyrryrrr" />
        <phase duration="31" state="rrrrrrGGG" />
        <phase duration="7" state="rrrrrryyy" />
    </tlLogic>
    <tlLogic id="278942791" offset="0" programID="1" type="static">
        <phase duration="38" state="GGrr" />