<routes xmlns:xsi="http://www.w3.org/2001/XMLSchema-instance" xsi:noNamespaceSchemaLocation="http://sumo.dlr.de/xsd/routes_file.xsd">
    <vType id="passenger" maxSpeed="50.00" vClass="passenger" />
    <vehicle depart="0.00" departLane="best" id="0" type="passenger">
        <route edges="27122600#0 27122600#1 265314124 73255184" />
    </vehicle>
    <vehicle depart="0.60" departLane="best" id="1" type="passenger">
        <route edges="75114130 73255164#0 73255164#1 27122600#0 27122600#1 431340101#0 431340101#1 431340101#2 27082629#0 27082629#1 27082629#2 27082629#3 27082628#1 121815296#0 27082625#0 27082625#1 27082625#2" />
    </vehicle>
    <vehicle depart="0.80" departLane="best" id="2" type="passenger">
        <route edges="27053786#1 27053786#2 74709049 431340128 27082629#0 27082629#1 27082629#2 27082629#3 27082628#1 27082628#2 265322458#0" />
    </vehicle>
    <vehicle depart="1.40" departLane="best" id="3" type="passenger">
        <route edges="27053791#1 27053791#2 74433809#2 75201454#4 75201454#5 27078417 75201453 73255133 75112472#0 75112472#1 75112472#2 27052071#0 27052071#1 75096252#0 75744490#1" />
    </vehicle>
    <vehicle depart="1.80" departLane="best" id="4" type="passenger">
        <route edges="75109400#5 75109400#6 75109400#7 75109400#8 75109405 75201453 73255133" />
    </vehicle>
    <vehicle depart="2.20" departLane="best" id="5" type="passenger">
        <route edges="27052069#1 74371262#1 27082600 74516072#0 74516072#1 75739347#0 75109400#8" />
    </vehicle>
    <vehicle depart="2.60" departLane="best" id="6" type="passenger">
        <route edges="75744490#0 75744490#1 160464620 446372799#0 446372799#1 27122600#0 27122600#1 431340101#0 431340101#1 431340101#2 27082629#0 27082629#1 75201454#5 27078417 75201473 75739328#0 75739328#1 74516082#2 75109400#6" />
    </vehicle>
    <vehicle depart="2.80" departLane="best" id="7" type="passenger">
        <route edges="75042822#1 75042822#2 75739345#5 75739345#6 431340101#0 431340101#1 431340101#2 27082629#0 27083324#1 75042826 74433785" />
    </vehicle>
    <vehicle depart="3.20" departLane="best" id="8" type="passenger">
        <route edges="75112472#1 75112472#2 73255164#0 73255164#1 27122600#0 27122600#1 431340101#0 431340101#1 431340101#2 27082629#0 27083324#1 75042825" />
    </vehicle>
    <vehicle depart="4.00" departLane="best" id="9" type="passenger">
        <route edges="75112472#2 73255164#0 73255164#1 27122600#0 27122600#1 431340101#0 431340101#1 431340101#2 74433840#0 74433840#1 142497264 75112493 74516072#0" />
    </vehicle>
    <vehicle depart="4.20" departLane="best" id="10" type="passenger">
        <route edges="74709025 75359304#0 75359304#1 27083325#2 75201454#1" />
    </vehicle>
    <vehicle depart="4.60" departLane="best" id="11" type="passenger">
        <route edges="27082629#2 27082629#3 27082628#1 27082628#2 265322458#0 265322458#1 75262974#2 75109405 75201453 73255133 75112472#0 75112472#1 75112472#2 73255164#0 73255164#1 27122600#0 27122600#1 265314124 142497496#0 142497496#1 75042822#0 75042822#1 27639510 27639507#0 27639507#1" />
    </vehicle>
    <vehicle depart="5.20" departLane="best" id="12" type="passenger">
        <route edges="27082628#0 27082628#1 27082628#2 265322458#0 265322458#1 75262974#2 75109405 75201453 73255133 75112472#0 75112472#1 75112472#2 27052071#0 27052069#1" />
    </vehicle>
    <vehicle depart="5.80" departLane="best" id="13" type="passenger">
        <route edges="27053786#0 27053786#1 27053786#2 74709049 431340128 27082629#0 27082629#1 75201454#5 27078417 75201473 75739328#0 75739328#1 74516082#2" />
    </vehicle>
    <vehicle depart="6.60" departLane="best" id="14" type="passenger">
        <route edges="75251438#3 73255133 75112472#0 75112472#1 75112472#2 73255164#0 73255164#1 27122600#0 27122600#1 265314124 142497496#0 142497496#1 75042822#0 75042822#1" />
    </vehicle>
    <vehicle depart="7.00" departLane="best" id="15" type="passenger">
        <route edges="27082629#1 27082629#2 27053791#1" />
    </vehicle>
    <vehicle depart="7.60" departLane="best" id="16" type="passenger">
        <route edges="75201473 75739347#0 75739347#1 -265322458#2 -265322458#1 -265322458#0 27082628#0 27082628#1 121815296#0 27082625#0" />
    </vehicle>
    <vehicle depart="7.80" departLane="best" id="17" type="passenger">
        <route edges="27056027#0 75739345#4 75042822#3 446372799#0 27052069#0 27052069#1" />
    </vehicle>
    <vehicle depart="8.20" departLane="best" id="18" type="passenger">
        <route edges="75739328#0 270244026#3 75251438#2 75251438#3 73255133 75112472#0 75112472#1 75112472#2 27052071#0 27052071#1 75096252#0 75744490#1 27056027#0 75739345#4" />
    </vehicle>
    <vehicle depart="8.80" departLane="best" id="19" type="passenger">
        <route edges="73255164#0 73255164#1 27122600#0 27122600#1 431340101#0 431340101#1 431340101#2 27082629#0 27082629#1 27082629#2 27082629#3 27082628#1 121815296#0 27082625#0 27082625#1 27082625#2" />
    </vehicle>
    <vehicle depart="9.00" departLane="best" id="20" type="passenger">
        <route edges="27053786#2 74709025 75359304#0 75359304#1 75359304#2" />
    </vehicle>
    <vehicle depart="9.40" departLane="best" id="21" type="passenger">
        <route edges="270244026#2 270244026#3 270244026#4 270244026#5 27055797" />
    </vehicle>
    <vehicle depart="9.80" departLane="best" id="22" type="passenger">
        <route edges="27082604#1 27082604#2 27053791#0 27082629#3" />
    </vehicle>
    <vehicle depart="10.40" departLane="best" id="23" type="passenger">
        <route edges="27083324#0 27082629#1 75201454#5 27078417" />
    </vehicle>
    <vehicle depart="10.60" departLane="best" id="24" type="passenger">
        <route edges="27639509 75042822#1 75042822#2 75042822#3 27053171 75096174 74371262#0 74371262#1 27082600 74516068#0 74516068#1 74516029" />
    </vehicle>
    <vehicle depart="11.00" departLane="best" id="25" type="passenger">
        <route edges="27083324#1 75042826 74433785 142497496#0 142497496#1 75042822#0 75042822#1 27639510" />
    </vehicle>
    <vehicle depart="12.00" departLane="best" id="26" type="passenger">
        <route edges="27053791#2 74433809#2 75201454#4 75201454#5 27078417 75201453 73255133 75112493 74516072#0 75251438#3" />
    </vehicle>
    <vehicle depart="12.20" departLane="best" id="27" type="passenger">
        <route edges="75201453 73255201 27083324#0 27083324#1 75042826" />
    </vehicle>
    <vehicle depart="12.40" departLane="best" id="28" type="passenger">
        <route edges="74709025 75356673#0 75201454#3 75201454#4 75201454#5 27078417 75201453 73255133 75112472#0 75112472#1 75112472#2 27052071#0 27052069#1 74371262#1 75114130" />
    </vehicle>
    <vehicle depart="12.60" departLane="best" id="29" type="passenger">
        <route edges="74516072#0 75251438#3 73255133 75112472#0 75112472#1 75112472#2 73255164#0 73255164#1 27122600#0 27122600#1 265314124 73255184 74724938#0" />
    </vehicle>
    <vehicle depart="13.00" departLane="best" id="30" type="passenger">
        <route edges="27078417 75201453 73255201 27083324#0 27082629#1 75201454#5" />
    </vehicle>
    <vehicle depart="13.80" departLane="best" id="31" type="passenger">
        <route edges="74433809#3 75042826 431340128 74433840#0 74433840#1 142497264 75112472#0 75112472#1 75112472#2 73255164#0 73255164#1 27122600#0 27122600#1 431340101#0" />
    </vehicle>
    <vehicle depart="14.20" departLane="best" id="32" type="passenger">
        <route edges="265322458#4 -265322458#4 -265322458#3 -265322458#2 265322458#2" />
    </vehicle>
    <vehicle depart="15.00" departLane="best" id="33" type="passenger">
        <route edges="27083325#0 75193811#1 75193811#2 74709049 431340128 74433840#0 74433840#1 27082604#0" />
    </vehicle>
    <vehicle depart="15.80" departLane="best" id="34" type="passenger">
        <route edges="27486761 27053791#2 74433809#2 75201454#4 75201454#5 27078417 75201453 73255133 75112472#0 75112472#1 75112472#2 27052071#0 27052071#1 75096252#0 75744490#1" />
    </vehicle>
    <vehicle depart="16.20" departLane="best" id="35" type="passenger">
        <route edges="160464620 446372799#0 446372799#1 27122600#0 27122600#1 265314124 73255184 74724938#0" />
    </vehicle>
    <vehicle depart="16.80" departLane="best" id="36" type="passenger">
        <route edges="75201454#5 27082604#2 27082604#3 265322458#1 75262974#2 75109405" />
    </vehicle>
    <vehicle depart="17.00" departLane="best" id="37" type="passenger">
        <route edges="75193811#2 74709049 431340128 74433840#0 74433840#1 142497264 75112472#0 75112472#1 75112472#2 27052071#0 27052069#1 74371262#1 75114130" />
    </vehicle>
    <vehicle depart="17.40" departLane="best" id="38" type="passenger">
        <route edges="75739347#1 -265322458#2 75262974#2 75109405 75201453 73255201 27083324#0 27083324#1 75042826" />
    </vehicle>
    <vehicle depart="17.60" departLane="best" id="39" type="passenger">
        <route edges="74433809#2 75201454#4 75201454#5 27078417 75201473 75739328#0 75739328#1 74516082#2 74516082#3" />
    </vehicle>
    <vehicle depart="18.20" departLane="best" id="40" type="passenger">
        <route edges="74516072#0 75251438#3 73255133 75112472#0 75112472#1 75112472#2 27052071#0 27052071#1 75096252#0 75744490#1 27056027#0 27056027#1" />
    </vehicle>
    <vehicle depart="18.60" departLane="best" id="41" type="passenger">
        <route edges="431340101#1 431340101#2 74433840#0 74433840#1 142497264 75112472#0 75112472#1 75112472#2 27052071#0 27052069#1 74371262#1 75114130" />
    </vehicle>
    <vehicle depart="18.80" departLane="best" id="42" type="passenger">
        <route edges="74516072#0 75251438#3 73255201" />
    </vehicle>
    <vehicle depart="19.00" departLane="best" id="43" type="passenger">
        <route edges="74516082#0 75251438#1 75251438#2 75251438#3 73255201 27083324#0 27083324#1 75042825 75356673#0 75356673#1" />
    </vehicle>
    <vehicle depart="19.60" departLane="best" id="44" type="passenger">
        <route edges="74709025 75356673#0 75201454#3 75201454#4 75201454#5 27078417 75201453 73255133 75112493 74516072#0" />
    </vehicle>
    <vehicle depart="20.00" departLane="best" id="45" type="passenger">
        <route edges="27082604#2 27082604#3 265322458#1 75262974#2 75109405 75201453 73255133 75112493 74516068#0 74516068#1 74516082#0 74516082#1" />
    </vehicle>
    <vehicle depart="20.20" departLane="best" id="46" type="passenger">
        <route edges="73255164#0 73255164#1 27122600#0 27122600#1 431340101#0 431340101#1 431340101#2 27082629#0 27082629#1 27082629#2 27082629#3 27082628#1 27082628#2" />
    </vehicle>
    <vehicle depart="21.00" departLane="best" id="47" type="passenger">
        <route edges="75193811#0 75193811#1 75193811#2 74709049 431340128 27082629#0 27082629#1 27082629#2 27082629#3 27082628#1 27082628#2" />
    </vehicle>
    <vehicle depart="21.40" departLane="best" id="48" type="passenger">
        <route edges="27078417 75201453 73255201 27083324#0 27082629#1" />
    </vehicle>
    <vehicle depart="21.80" departLane="best" id="49" type="passenger">
        <route edges="27082604#0 27082604#1 27078417 75201453 73255133 75112472#0 75112472#1 75112472#2 27052071#0 27052071#1 75096252#0 75744490#1 27056027#0 75739345#4" />
    </vehicle>
    <vehicle depart="22.20" departLane="best" id="50" type="passenger">
        <route edges="-265322458#3 -265322458#2 -265322458#1" />
    </vehicle>
    <vehicle depart="22.80" departLane="best" id="51" type="passenger">
        <route edges="75739345#6 431340101#0 431340101#1 431340101#2 27082629#0 27082629#1 27082629#2 27082629#3 27082628#1 121815296#0 27082625#0 27082625#1 27082625#2 74433809#1" />
    </vehicle>
    <vehicle depart="23.00" departLane="best" id="52" type="passenger">
        <route edges="431340101#0 431340101#1 431340101#2 74433840#0 74433840#1 142497264 75112493 74516072#0" />
    </vehicle>
    <vehicle depart="23.40" departLane="best" id="53" type="passenger">
        <route edges="75112472#2 73255164#0 73255164#1 27122600#0 27122600#1 265314124 142497496#0 142497496#1" />
    </vehicle>
    <vehicle depart="24.20" departLane="best" id="54" type="passenger">
        <route edges="28408742#1 75201454#2 75201454#3 75201454#4 27082629#2 27082629#3 27082628#1 27082628#2 265322458#0 27082604#4" />
    </vehicle>
    <vehicle depart="24.60" departLane="best" id="55" type="passenger">
        <route edges="-265322458#2 -265322458#1 -265322458#0 27082628#0 27082628#1 121815296#0 27082625#0 27082625#1 27082625#2 74433809#1 74433809#2 74433809#3" />
    </vehicle>
    <vehicle depart="25.00" departLane="best" id="56" type="passenger">
        <route edges="270244026#4 74516068#1 74516082#0 75251438#1" />
    </vehicle>
    <vehicle depart="25.40" departLane="best" id="57" type="passenger">
        <route edges="74516072#1 75739347#0 75109400#8 75109405 75201453 73255201 27083324#0 27083324#1 75042825 75359304#0" />
    </vehicle>
    <vehicle depart="25.60" departLane="best" id="58" type="passenger">
        <route edges="75262974#2 75109404 27082604#3 265322458#1 265322458#2 -265322458#2" />
    </vehicle>
    <vehicle depart="26.00" departLane="best" id="59" type="passenger">
        <route edges="75112472#2 73255164#0 73255164#1 27122600#0 27122600#1 431340101#0 431340101#1 431340101#2" />
    </vehicle>
    <vehicle depart="26.80" departLane="best" id="60" type="passenger">
        <route edges="75112472#0 75112472#1 75112472#2 73255164#0 73255164#1 27122600#0 27122600#1 431340101#0 431340101#1 431340101#2 27082629#0 27082629#1 27082629#2 27082629#3 27082628#1 121815296#0 27082625#0 75452225" />
    </vehicle>
    <vehicle depart="27.20" departLane="best" id="61" type="passenger">
        <route edges="28408742#2 28408742#3 75193811#2 74709049 74433785 73255184" />
    </vehicle>
    <vehicle depart="27.60" departLane="best" id="62" type="passenger">
        <route edges="27486761 27053791#2 74433809#2 74433809#3 75042825 75359304#0 75359304#1" />
    </vehicle>
    <vehicle depart="28.20" departLane="best" id="63" type="passenger">
        <route edges="75739345#5 75739345#6 431340101#0 431340101#1 431340101#2 27082629#0 27082629#1 27082629#2 27082629#3 27082628#1 27082628#2 265322458#0 265322458#1 75262974#2 75109405" />
    </vehicle>
    <vehicle depart="28.40" departLane="best" id="64" type="passenger">
        <route edges="27082628#1 27082628#2 265322458#0 27082604#4" />
    </vehicle>
    <vehicle depart="28.60" departLane="best" id="65" type="passenger">
        <route edges="74709011 27053786#0 27053786#1 27053786#2 74709049 74433785 142497496#0 142497496#1 75042822#0 75042822#1 27639510" />
    </vehicle>
    <vehicle depart="29.00" departLane="best" id="66" type="passenger">
        <route edges="75201454#3 75201454#4 75201454#5 27078417 75201453 73255133 75112472#0 75112472#1 75112472#2 27052071#0 27052069#1" />
    </vehicle>
    <vehicle depart="30.20" departLane="best" id="67" type="passenger">
        <route edges="75042822#1 75042822#2 75042822#3 27053171 75096174 74371262#0 74371262#1" />
    </vehicle>
    <vehicle depart="30.60" departLane="best" id="68" type="passenger">
        <route edges="74371262#1 75114130 73255164#0 73255164#1 27122600#0 27122600#1 431340101#0 431340101#1 431340101#2 27082629#0 27082629#1 75201454#5 27078417 75201453" />
    </vehicle>
    <vehicle depart="31.20" departLane="best" id="69" type="passenger">
        <route edges="75112472#0 75112472#1 75112472#2 73255164#0 73255164#1 -446372799#1 446372799#1" />
    </vehicle>
    <vehicle depart="31.40" departLane="best" id="70" type="passenger">
        <route edges="75251438#0 75251438#1 75251438#2 74516072#1 75739328#0" />
    </vehicle>
    <vehicle depart="31.80" departLane="best" id="71" type="passenger">
        <route edges="75739345#6 431340101#0 431340101#1 431340101#2 27082629#0 27082629#1 27082629#2 27082629#3 27082628#1 27082628#2 265322458#0 265322458#1 265322458#2 265322458#3" />
    </vehicle>
    <vehicle depart="32.20" departLane="best" id="72" type="passenger">
        <route edges="74724938#0 74724938#1 27083325#0 75193811#1 75193811#2 74709049 431340128 27082629#0 27082629#1 27082629#2 27082629#3 27082628#1 27082628#2 265322458#0 27082604#4 27082604#5" />
    </vehicle>
    <vehicle depart="32.60" departLane="best" id="73" type="passenger">
        <route edges="27082628#1 27082628#2 265322458#0 265322458#1 75262974#2 75109405 75201453 73255133 75112472#0 75112472#1 75112472#2 27052071#0 27052069#1 74371262#1" />
    </vehicle>
    <vehicle depart="33.00" departLane="best" id="74" type="passenger">
        <route edges="74516082#3 -265322458#4 -265322458#3 -265322458#2 75262974#2 75109405 75201453 73255133 75112472#0 75112472#1 75112472#2 27052071#0 27052071#1 75096252#0 75744490#1" />
    </vehicle>
    <vehicle depart="33.80" departLane="best" id="75" type="passenger">
        <route edges="73255184 27053786#0 27053786#1 27053786#2 74709049 431340128 74433840#0 74433840#1 142497264 75112472#0 75112472#1 75112472#2 73255164#0 73255164#1 27122600#0 27122600#1" />
    </vehicle>
    <vehicle depart="34.20" departLane="best" id="76" type="passenger">
        <route edges="74371262#0 74371262#1 75114130 27052071#0 27052071#1 75096252#0 75744490#1 27056027#0" />
    </vehicle>
    <vehicle depart="35.00" departLane="best" id="77" type="passenger">
        <route edges="75109404 27053791#0 27053791#1 27053791#2 74433809#2 74433809#3 75042825 75356673#0 75356673#1" />
    </vehicle>
    <vehicle depart="35.40" departLane="best" id="78" type="passenger">
        <route edges="27082629#2 27082629#3 27082628#1 27082628#2 265322458#0 265322458#1 75262974#2 75109405 75201453 73255133 75112472#0 75112472#1 75112472#2 73255164#0 73255164#1 27122600#0 27122600#1 265314124 142497496#0 142497496#1 75042822#0 75042822#1 27639510 27639507#0" />
    </vehicle>
    <vehicle depart="35.80" departLane="best" id="79" type="passenger">
        <route edges="74433809#1 74433809#2 75201454#4 27082629#2 27082629#3 27082628#1 27082628#2 265322458#0 27082604#4 27082604#5" />
    </vehicle>
    <vehicle depart="36.40" departLane="best" id="80" type="passenger">
        <route edges="74433840#1 27082604#0 27082604#1 27082604#2 27082604#3 -265322458#0" />
    </vehicle>
    <vehicle depart="36.60" departLane="best" id="81" type="passenger">
        <route edges="27639510 27639507#0 27639509 75042822#1 75042822#2 75042822#3 27053171 75096174 74371262#0 74371262#1 75114130 27052071#0" />
    </vehicle>
    <vehicle depart="37.00" departLane="best" id="82" type="passenger">
        <route edges="270244026#1 75109400#7 75109400#8 75109405 75201453 73255133 75112472#0 75112472#1 75112472#2 73255164#0 73255164#1 27122600#0 27122600#1 265314124 73255184 74724938#0 74724938#1" />
    </vehicle>
    <vehicle depart="37.60" departLane="best" id="83" type="passenger">
        <route edges="142497264 75112472#0 75112472#1 75112472#2 73255164#0 73255164#1 -446372799#1 446372799#1" />
    </vehicle>
    <vehicle depart="37.80" departLane="best" id="84" type="passenger">
        <route edges="27122600#1 265314124 142497496#0" />
    </vehicle>
    <vehicle depart="38.20" departLane="best" id="85" type="passenger">
        <route edges="75251438#1 75251438#2 75251438#3 73255201 27083324#0 27082629#1 27082629#2 27082629#3 27082628#1 121815296#0 27082625#0" />
    </vehicle>
    <vehicle depart="38.80" departLane="best" id="86" type="passenger">
        <route edges="-265322458#3 -265322458#2 -265322458#1 -265322458#0 27082628#0 27082628#1 121815296#0 27082625#0 27082625#1 27082625#2 74433809#1 27053791#3" />
    </vehicle>
    <vehicle depart="39.20" departLane="best" id="87" type="passenger">
        <route edges="75359304#1 27083325#2 75201454#1 75201454#2 75201454#3 75201454#4 75201454#5 27078417 75201453 73255133 75112472#0 75112472#1" />
    </vehicle>
    <vehicle depart="39.40" departLane="best" id="88" type="passenger">
        <route edges="74709025 75356673#0 75201454#3 75201454#4 75201454#5 27078417 75201453 73255133 75112493 74516068#0 74516068#1 74516082#0" />
    </vehicle>
    <vehicle depart="39.60" departLane="best" id="89" type="passenger">
        <route edges="75262974#2 75109405 75201453 73255201 27083324#0 27083324#1 75042825 75359304#0 75359304#1 27083325#2 75201454#1 75201454#2" />
    </vehicle>
    <vehicle depart="40.00" departLane="best" id="90" type="passenger">
        <route edges="74709025 75356673#0 75201454#3 75201454#4 75201454#5 27078417 75201453 73255133 75112472#0 75112472#1 75112472#2 73255164#0 73255164#1 27122600#0 27122600#1 431340101#0 431340101#1 431340101#2" />
    </vehicle>
    <vehicle depart="40.60" departLane="best" id="91" type="passenger">
        <route edges="-446372799#1 446372799#1 27122600#0 27122600#1 431340101#0 431340101#1 431340101#2 27082629#0 27082629#1 27082629#2 27082629#3 27082628#1 27082628#2" />
    </vehicle>
    <vehicle depart="41.40" departLane="best" id="92" type="passenger">
        <route edges="73255201 27083324#0 27082629#1 27082629#2 27082629#3 27082628#1" />
    </vehicle>
    <vehicle depart="42.40" departLane="best" id="93" type="passenger">
        <route edges="75201473 75739328#0 270244026#3 270244026#4 270244026#5 27055797" />
    </vehicle>
    <vehicle depart="42.80" departLane="best" id="94" type="passenger">
        <route edges="74433809#0 74433809#1 74433809#2 75201454#4 75201454#5 27078417 75201453 73255133 75112493 74516072#0 75251438#3" />
    </vehicle>
    <vehicle depart="43.20" departLane="best" id="95" type="passenger">
        <route edges="431340101#0 431340101#1" />
    </vehicle>
    <vehicle depart="44.00" departLane="best" id="96" type="passenger">
        <route edges="27082628#1 121815296#0 27082625#0 27082625#1 27082625#2 74433809#1 74433809#2 75201454#4 27082629#2" />
    </vehicle>
    <vehicle depart="44.20" departLane="best" id="97" type="passenger">
        <route edges="27083325#2 75201454#1 75201454#2 75201454#3 75201454#4 75201454#5 27078417 75201453 73255133 75112472#0 75112472#1 75112472#2 27052071#0 27052069#1" />
    </vehicle>
    <vehicle depart="44.60" departLane="best" id="98" type="passenger">
        <route edges="75415229#0 75415229#1 75114130 73255164#0 73255164#1 27122600#0 27122600#1 265314124 73255184 27053786#0" />
    </vehicle>
    <vehicle depart="44.80" departLane="best" id="99" type="passenger">
        <route edges="27053786#2 74709049 431340128 27082629#0 27082629#1 27082629#2 27082629#3 27082628#1 27082628#2 265322458#0 27082604#4 27082605" />
    </vehicle>
    <vehicle depart="45.60" departLane="best" id="100" type="passenger">
        <route edges="74516082#3 -265322458#4 -265322458#3 -265322458#2 75262974#2 75109405 75201453 73255133 75112472#0 75112472#1 75112472#2 73255164#0 73255164#1 27122600#0 27122600#1 265314124 142497496#0 142497496#1 75042822#0 75042822#1 75042822#2 75739345#5 75739345#6" />
    </vehicle>
    <vehicle depart="46.20" departLane="best" id="101" type="passenger">
        <route edges="74516082#3 -265322458#4 270244026#1 270244026#2 75739328#1 75739328#2" />
    </vehicle>
    <vehicle depart="46.80" departLane="best" id="102" type="passenger">
        <route edges="270244026#2 75739328#1 74516082#2 74516082#3 -265322458#4 -265322458#3 -265322458#2 -265322458#1 -265322458#0 27082628#0 27082628#1 121815296#0 27082625#0" />
    </vehicle>
    <vehicle depart="47.20" departLane="best" id="103" type="passenger">
        <route edges="27083325#0 75193811#1 75193811#2 74709025 75356673#0" />
    </vehicle>
    <vehicle depart="48.40" departLane="best" id="104" type="passenger">
        <route edges="27052069#0 27052069#1 74371262#1 75114130 73255164#0 73255164#1 27122600#0 27122600#1 431340101#0 431340101#1 431340101#2 27082629#0 27083324#1 75042825 75356673#0" />
    </vehicle>
    <vehicle depart="48.80" departLane="best" id="105" type="passenger">
        <route edges="27082628#2 265322458#0 265322458#1 75262974#2 75109405 75201453" />
    </vehicle>
    <vehicle depart="49.00" departLane="best" id="106" type="passenger">
        <route edges="75739328#0 270244026#3 75251438#2 75251438#3 73255133 75112472#0 75112472#1 75112472#2 73255164#0 73255164#1 27122600#0 27122600#1 265314124 142497496#0 142497496#1" />
    </vehicle>
    <vehicle depart="49.60" departLane="best" id="107" type="passenger">
        <route edges="75201454#4 27082629#2 27082629#3 27082628#1 27082628#2 265322458#0 265322458#1 -265322458#1" />
    </vehicle>
    <vehicle depart="50.80" departLane="best" id="108" type="passenger">
        <route edges="75356673#0 75201454#3 75201454#4 75201454#5 27078417 75201453 73255133 75112472#0 75112472#1 75112472#2 73255164#0 73255164#1" />
    </vehicle>
    <vehicle depart="51.20" departLane="best" id="109" type="passenger">
        <route edges="74516068#1 74516082#0 75251438#1 75251438#2 75251438#3 73255201 27083324#0 27082629#1 27082629#2 27082629#3" />
    </vehicle>
    <vehicle depart="51.60" departLane="best" id="110" type="passenger">
        <route edges="75739345#5 75739345#6 431340101#0 431340101#1 431340101#2 27082629#0 27082629#1 75201454#5 27078417 75201473 75739328#0 75739328#1 74516082#2 75109400#6" />
    </vehicle>
    <vehicle depart="52.40" departLane="best" id="111" type="passenger">
        <route edges="74433840#0 74433840#1 27082604#0 27083324#0 27082629#1 27082629#2 27082629#3 27082628#1 121815296#0" />
    </vehicle>
    <vehicle depart="53.00" departLane="best" id="112" type="passenger">
        <route edges="75042822#0 75042822#1 75042822#2 75042822#3 27053171 75096174 74371262#0 74371262#1 27082600 74516068#0 74516068#1 74516082#0 75251438#1" />
    </vehicle>
    <vehicle depart="53.20" departLane="best" id="113" type="passenger">
        <route edges="75096252#0 75744490#1 160464620 446372799#0 446372799#1 27122600#0 27122600#1 431340101#0 431340101#1" />
    </vehicle>
    <vehicle depart="53.60" departLane="best" id="114" type="passenger">
        <route edges="27122600#0 27122600#1 431340101#0 431340101#1 431340101#2 74433840#0 74433840#1 142497264 75112472#0 75112472#1 75112472#2 27052071#0 27052069#1" />
    </vehicle>
    <vehicle depart="54.00" departLane="best" id="115" type="passenger">
        <route edges="75356673#0 75201454#3 75201454#4 27082629#2 27082629#3 27082628#1 27082628#2 265322458#0 27082604#4 27082605" />
    </vehicle>
    <vehicle depart="54.20" departLane="best" id="116" type="passenger">
        <route edges="75109400#8 75109405 75201453 73255133 75112472#0 75112472#1 75112472#2 73255164#0 73255164#1 27122600#0 27122600#1 431340101#0 431340101#1 431340101#2 74433840#0 74433840#1" />
    </vehicle>
    <vehicle depart="54.60" departLane="best" id="117" type="passenger">
        <route edges="75359304#0 28408742#3 75193811#2 74709049 431340128 74433840#0 74433840#1 142497264 75112472#0 75112472#1 75112472#2 27052071#0 27052069#1 74371262#1" />
    </vehicle>
    <vehicle depart="54.80" departLane="best" id="118" type="passenger">
        <route edges="75262974#2 75109405 75201453 73255133 75112472#0 75112472#1 75112472#2 73255164#0 73255164#1 27122600#0 27122600#1 431340101#0 431340101#1 431340101#2" />
    </vehicle>
    <vehicle depart="55.20" departLane="best" id="119" type="passenger">
        <route edges="446372799#0 27052069#0 27052069#1 74371262#1 27082600" />
    </vehicle>
    <vehicle depart="55.40" departLane="best" id="120" type="passenger">
        <route edges="270244026#4 270244026#5 75415229#1 75114130 73255164#0 73255164#1 27122600#0 27122600#1 265314124" />
    </vehicle>
    <vehicle depart="56.00" departLane="best" id="121" type="passenger">
        <route edges="431340101#2 74433840#0 74433840#1 142497264" />
    </vehicle>
    <vehicle depart="56.60" departLane="best" id="122" type="passenger">
        <route edges="-265322458#5 -265322458#4 -265322458#3 -265322458#2 75262974#2 75109405 75201453 73255201 27083324#0 27083324#1 75042825 75359304#0 75359304#1 27083325#2" />
    </vehicle>
    <vehicle depart="57.00" departLane="best" id="123" type="passenger">
        <route edges="160464618 160464620 446372799#0 446372799#1 27122600#0 27122600#1 431340101#0 431340101#1 431340101#2 27082629#0 27082629#1 27082629#2 27053791#1 27053791#2" />
    </vehicle>
    <vehicle depart="57.40" departLane="best" id="124" type="passenger">
        <route edges="75109400#5 75109400#6 75109400#7 75109400#8 75109405 75201453 73255201 27083324#0 27082629#1" />
    </vehicle>
    <vehicle depart="58.00" departLane="best" id="125" type="passenger">
        <route edges="75744490#1 27056027#0 75739345#4 75042822#3" />
    </vehicle>
    <vehicle depart="58.40" departLane="best" id="126" type="passenger">
        <route edges="27082604#1 27078417 75201453 73255133 75112472#0 75112472#1 75112472#2 73255164#0 73255164#1 27122600#0 27122600#1 431340101#0 431340101#1 431340101#2" />
    </vehicle>
    <vehicle depart="59.20" departLane="best" id="127" type="passenger">
        <route edges="27486761 27053791#2 74433809#2 75201454#4 75201454#5 27078417 75201453 73255133 75112493 74516072#0 75251438#3" />
    </vehicle>
    <vehicle depart="59.40" departLane="best" id="128" type="passenger">
        <route edges="75251438#1 75251438#2 75251438#3 73255133 75112472#0 75112472#1 75112472#2 73255164#0 73255164#1 27122600#0" />
    </vehicle>
    <vehicle depart="59.60" departLane="best" id="129" type="passenger">
        <route edges="75262974#2 75109405 75201453 73255133 75112472#0 75112472#1 75112472#2 73255164#0 73255164#1 27122600#0 27122600#1 265314124 142497496#0 142497496#1 75042822#0 75042822#1 75042822#2 75739345#5 75739345#6" />
    </vehicle>
    <vehicle depart="60.00" departLane="best" id="130" type="passenger">
        <route edges="27082628#1 27082628#2 265322458#0 265322458#1 75262974#2 75109405 75201453 73255133 75112472#0 75112472#1 75112472#2 27052071#0 27052071#1 75096252#0 75744490#1" />
    </vehicle>